TDZNR1apsS
                    3D
 Structure written by MMmdl.
 52 55  0  0  1  0            999 V2000
   22.2651  117.3399   46.5640 C   0  0  0  0  0  0
   21.9802  117.7154   45.2384 C   0  0  0  0  0  0
   22.9326  116.1290   46.8298 C   0  0  0  0  0  0
   22.3793  116.8836   44.1768 C   0  0  0  0  0  0
   22.7772  111.9706   43.0371 C   0  0  0  0  0  0
   22.5241  110.7173   43.6179 C   0  0  0  0  0  0
   23.2603  111.5795   45.7781 C   0  0  0  0  0  0
   23.2962  115.2542   45.7756 C   0  0  0  0  0  0
   23.4799  112.8588   45.2203 C   0  0  0  0  0  0
   23.0254  115.6610   44.4421 C   0  0  0  0  0  0
   23.2410  113.0371   43.8334 C   0  0  0  0  0  0
   22.7699  110.5209   44.9858 C   0  0  0  0  0  0
   25.8132  117.3494   43.6480 C   0  0  0  0  0  0
   27.0816  117.1675   42.8100 C   0  0  0  0  0  0
   25.4471  116.0245   44.3310 C   0  0  0  0  0  0
   28.2213  116.6487   43.6931 C   0  0  0  0  0  0
   26.6120  115.4264   45.1645 C   0  0  1  0  0  0
   29.0524  114.8318   45.0911 C   0  0  0  0  0  0
   21.0357  108.2099   44.7321 C   0  0  0  0  0  0
   26.1972  114.0340   45.7188 C   0  0  0  0  0  0
   25.0843  114.0516   46.7935 C   0  0  0  0  0  0
   23.8060  113.9658   46.0399 N   0  0  0  0  0  0
   27.8747  115.3555   44.3475 N   0  3  2  0  0  0
   23.4479  114.6163   43.0850 S   0  0  0  0  0  0
   22.3732  108.9538   45.6988 S   0  0  0  0  0  0
   21.9282  117.9651   47.3790 H   0  0  0  0  0  0
   21.4311  118.6248   45.0371 H   0  0  0  0  0  0
   23.0970  115.8589   47.8570 H   0  0  0  0  0  0
   22.1391  117.1565   43.1610 H   0  0  0  0  0  0
   22.5597  112.1314   41.9913 H   0  0  0  0  0  0
   22.1037  109.9175   43.0232 H   0  0  0  0  0  0
   23.3814  111.4269   46.8330 H   0  0  0  0  0  0
   25.9672  118.1321   44.3961 H   0  0  0  0  0  0
   24.9891  117.6874   43.0145 H   0  0  0  0  0  0
   26.8886  116.4819   41.9819 H   0  0  0  0  0  0
   27.3693  118.1201   42.3567 H   0  0  0  0  0  0
   24.5766  116.1881   44.9694 H   0  0  0  0  0  0
   25.1278  115.3145   43.5676 H   0  0  0  0  0  0
   29.1102  116.5232   43.0742 H   0  0  0  0  0  0
   28.4669  117.3942   44.4507 H   0  0  0  0  0  0
   26.7980  116.0974   46.0074 H   0  0  0  0  0  0
   29.2172  115.3924   46.0107 H   0  0  0  0  0  0
   29.9568  114.9066   44.4892 H   0  0  0  0  0  0
   28.9566  113.7762   45.3409 H   0  0  0  0  0  0
   20.7058  107.2867   45.2097 H   0  0  0  0  0  0
   21.3712  107.9695   43.7238 H   0  0  0  0  0  0
   20.1893  108.8939   44.6778 H   0  0  0  0  0  0
   25.8904  113.4011   44.8846 H   0  0  0  0  0  0
   27.0499  113.5448   46.1699 H   0  0  0  0  0  0
   25.2667  113.2761   47.5395 H   0  0  0  0  0  0
   25.0981  114.9964   47.3427 H   0  0  0  0  0  0
   27.6880  114.7073   43.5948 H   0  0  0  0  0  0
  1  2  2  0  0  0
  1  3  1  0  0  0
  1 26  1  0  0  0
  2  4  1  0  0  0
  2 27  1  0  0  0
  3  8  2  0  0  0
  3 28  1  0  0  0
  4 10  2  0  0  0
  4 29  1  0  0  0
  5  6  2  0  0  0
  5 11  1  0  0  0
  5 30  1  0  0  0
  6 12  1  0  0  0
  6 31  1  0  0  0
  7  9  1  0  0  0
  7 12  2  0  0  0
  7 32  1  0  0  0
  8 10  1  0  0  0
  8 22  1  0  0  0
  9 11  2  0  0  0
  9 22  1  0  0  0
 10 24  1  0  0  0
 11 24  1  0  0  0
 12 25  1  0  0  0
 13 14  1  0  0  0
 13 15  1  0  0  0
 13 33  1  0  0  0
 13 34  1  0  0  0
 14 16  1  0  0  0
 14 35  1  0  0  0
 14 36  1  0  0  0
 15 17  1  0  0  0
 15 37  1  0  0  0
 15 38  1  0  0  0
 16 23  1  0  0  0
 16 39  1  0  0  0
 16 40  1  0  0  0
 17 20  1  0  0  0
 17 23  1  0  0  0
 17 41  1  0  0  0
 18 23  1  0  0  0
 18 42  1  0  0  0
 18 43  1  0  0  0
 18 44  1  0  0  0
 19 25  1  0  0  0
 19 45  1  0  0  0
 19 46  1  0  0  0
 19 47  1  0  0  0
 20 21  1  0  0  0
 20 48  1  0  0  0
 20 49  1  0  0  0
 21 22  1  0  0  0
 21 50  1  0  0  0
 21 51  1  0  0  0
 23 52  1  0  0  0
M  CHG  1  23   1
M  END
> <s_m_entry_id>
406

> <s_m_entry_name>
TDZNR1apsS.1

> <s_m_Source_Path>
/home/emilio/Dropbox/SAMPL9-eglab/mCD/ligsdfs

> <s_m_Source_File>
TDZNR1apsS.sdf

> <i_m_Source_File_Index>
1

> <i_lp_mmshare_version>
47013

> <s_epik_input>
W2NIXTFbY0hdW2NIXVtjSF1jKGMxMilTYzNjKFtjSF1jKFtjSF1bY0hdMylTW0NIM10pTjJbQ0gyXVtDSDJdW0NAQEhdNFtDSDJdW0NIMl1bQ0gyXVtDSDJdTjRbQ0gzXQ==

> <s_epik_cmdline>
J2VwaWtfcHl0aG9uJywgJy1waHQnLCAnNC4wJywgJy1waCcsICc3LjQnLCAnLXRuJywgJzgnLCAnLW1hJywgJzIwMCcsICctaW1hZScsICc8aW5maWxlLm1hZT4nLCAnLW9tYWUnLCAnPG91dGZpbGUubWFlPic=

> <r_epik_Ionization_Penalty>
  0.0017

> <r_epik_Ionization_Penalty_Charging>
  0.0017

> <r_epik_Ionization_Penalty_Neutral>
  0.0000

> <r_epik_State_Penalty>
  0.0011

> <r_epik_Charging_Adjusted_Penalty>
0.00279136850725907

> <i_epik_Tot_Q>
1

> <i_epik_Tot_abs_Q>
1

> <s_lp_Force_Field>
OPLS3e

> <r_lp_Energy>
55.960333

> <b_lp_Chiralities_Consistent>
1

> <s_lp_Variant>
TDZ-NR-1

> <s_m_job_name>
ligprep_4

> <chiral flag>
1

> <version>
0

> <i_f3d_flags>
0

> <s_m_subgroup_title>
bCDq->psS

> <s_m_subgroupid>
bCDq_copy1->psS_copy1_copy1

> <b_m_subgroup_collapsed>
0

$$$$
