TFP1bssR
                    3D
 Structure written by MMmdl.
 50 53  0  0  1  0            999 V2000
   32.1519  111.2804   44.3519 C   0  0  0  0  0  0
   32.6438  111.7446   43.1191 C   0  0  0  0  0  0
   31.8197  109.9227   44.5171 C   0  0  0  0  0  0
   32.7923  110.8528   42.0446 C   0  0  0  0  0  0
   34.2774  106.1467   41.2261 C   0  0  0  0  0  0
   34.8127  105.0862   41.9781 C   0  0  0  0  0  0
   33.2658  105.6105   43.7848 C   0  0  0  0  0  0
   31.9980  109.0070   43.4534 C   0  0  0  0  0  0
   32.7268  106.6968   43.0588 C   0  0  0  0  0  0
   32.4713  109.4926   42.2068 C   0  0  0  0  0  0
   33.2592  106.9592   41.7693 C   0  0  0  0  0  0
   34.3137  104.8253   43.2698 C   0  0  0  0  0  0
   28.0198  104.4025   42.2235 C   0  0  0  0  0  0
   29.1629  104.6127   40.0752 C   0  0  0  0  0  0
   26.7627  103.9124   41.4775 C   0  0  0  0  0  0
   27.8877  104.1189   39.3653 C   0  0  0  0  0  0
   29.5083  106.7347   43.2883 C   0  0  0  0  0  0
   30.5765  107.1906   44.2965 C   0  0  0  0  0  0
   29.9749  105.9270   42.0630 C   0  0  0  0  0  0
   31.8327  107.6237   43.6557 N   0  0  0  0  0  0
   28.8178  105.3035   41.3534 N   0  3  0  0  0  0
   27.1421  103.2271   40.2459 N   0  0  0  0  0  0
   33.9902  102.8104   44.3476 F   0  0  0  0  0  0
   35.1997  104.2856   45.3553 F   0  0  0  0  0  0
   36.0063  103.2092   43.6524 F   0  0  0  0  0  0
   32.7400  108.3782   40.8637 S   0  0  0  0  0  0
   34.9073  103.7559   44.1659 C   0  0  0  0  0  0
   32.0810  111.9604   45.1876 H   0  0  0  0  0  0
   32.9529  112.7744   43.0105 H   0  0  0  0  0  0
   31.4959  109.5804   45.4873 H   0  0  0  0  0  0
   33.2062  111.1946   41.1094 H   0  0  0  0  0  0
   34.6950  106.3896   40.2615 H   0  0  0  0  0  0
   35.6455  104.5143   41.5908 H   0  0  0  0  0  0
   32.9828  105.3996   44.7998 H   0  0  0  0  0  0
   27.7153  104.9359   43.1246 H   0  0  0  0  0  0
   28.6272  103.5565   42.5438 H   0  0  0  0  0  0
   29.8455  103.7815   40.2572 H   0  0  0  0  0  0
   29.6662  105.2813   39.3749 H   0  0  0  0  0  0
   26.1975  103.2240   42.1111 H   0  0  0  0  0  0
   26.0922  104.7423   41.2411 H   0  0  0  0  0  0
   27.2538  104.9584   39.0661 H   0  0  0  0  0  0
   28.1517  103.5879   38.4447 H   0  0  0  0  0  0
   28.7753  106.1368   43.8300 H   0  0  0  0  0  0
   29.0273  107.6382   42.9260 H   0  0  0  0  0  0
   30.2024  108.0155   44.9066 H   0  0  0  0  0  0
   30.7860  106.3784   44.9968 H   0  0  0  0  0  0
   30.5283  106.5761   41.3842 H   0  0  0  0  0  0
   30.6743  105.1451   42.3793 H   0  0  0  0  0  0
   27.5956  102.3269   40.3946 H   0  0  0  0  0  0
   28.1872  106.0479   41.0912 H   0  0  0  0  0  0
  1  2  2  0  0  0
  1  3  1  0  0  0
  1 28  1  0  0  0
  2  4  1  0  0  0
  2 29  1  0  0  0
  3  8  2  0  0  0
  3 30  1  0  0  0
  4 10  2  0  0  0
  4 31  1  0  0  0
  5  6  2  0  0  0
  5 11  1  0  0  0
  5 32  1  0  0  0
  6 12  1  0  0  0
  6 33  1  0  0  0
  7  9  1  0  0  0
  7 12  2  0  0  0
  7 34  1  0  0  0
  8 10  1  0  0  0
  8 20  1  0  0  0
  9 11  2  0  0  0
  9 20  1  0  0  0
 10 26  1  0  0  0
 11 26  1  0  0  0
 12 27  1  0  0  0
 13 15  1  0  0  0
 13 21  1  0  0  0
 13 35  1  0  0  0
 13 36  1  0  0  0
 14 16  1  0  0  0
 14 21  1  0  0  0
 14 37  1  0  0  0
 14 38  1  0  0  0
 15 22  1  0  0  0
 15 39  1  0  0  0
 15 40  1  0  0  0
 16 22  1  0  0  0
 16 41  1  0  0  0
 16 42  1  0  0  0
 17 18  1  0  0  0
 17 19  1  0  0  0
 17 43  1  0  0  0
 17 44  1  0  0  0
 18 20  1  0  0  0
 18 45  1  0  0  0
 18 46  1  0  0  0
 19 21  1  0  0  0
 19 47  1  0  0  0
 19 48  1  0  0  0
 21 50  1  0  0  0
 22 49  1  0  0  0
 23 27  1  0  0  0
 24 27  1  0  0  0
 25 27  1  0  0  0
M  CHG  1  21   1
M  END
> <s_m_entry_id>
518

> <s_m_entry_name>
TFP1bssR.1

> <s_m_Source_Path>
/home/emilio/Dropbox/SAMPL9-eglab/mCD/ligsdfs

> <s_m_Source_File>
TFP1bssR.sdf

> <i_m_Source_File_Index>
1

> <i_lp_mmshare_version>
47013

> <s_epik_input>
W2NIXTFbY0hdW2NIXVtjSF1jKGMxMilTYzNjKFtjSF1jKEMoRikoRilGKVtjSF1bY0hdMylOMltDSDJdW0NIMl1bQ0gyXU40W0NIMl1bQ0gyXVtOSF1bQ0gyXVtDSDJdNA==

> <s_epik_cmdline>
J2VwaWtfcHl0aG9uJywgJy1waHQnLCAnNC4wJywgJy1waCcsICc3LjQnLCAnLXRuJywgJzgnLCAnLW1hJywgJzIwMCcsICctaW1hZScsICc8aW5maWxlLm1hZT4nLCAnLW9tYWUnLCAnPG91dGZpbGUubWFlPic=

> <r_epik_Ionization_Penalty>
  0.1004

> <r_epik_Ionization_Penalty_Charging>
  0.0867

> <r_epik_Ionization_Penalty_Neutral>
  0.0137

> <r_epik_State_Penalty>
  1.6660

> <r_epik_Charging_Adjusted_Penalty>
1.75263574697331

> <i_epik_Tot_Q>
1

> <i_epik_Tot_abs_Q>
1

> <s_lp_Force_Field>
OPLS3e

> <r_lp_Energy>
57.544639

> <b_lp_Chiralities_Consistent>
1

> <s_lp_Variant>
TFP-2

> <s_m_job_name>
ligprep_4

> <chiral flag>
1

> <version>
0

> <i_f3d_flags>
0

> <s_m_subgroup_title>
bCDq->ssR d_copy1

> <s_m_subgroupid>
bCDq_copy1->imported_structures_copy1

> <b_m_subgroup_collapsed>
0

$$$$
