TFP1assR
                    3D
 Structure written by MMmdl.
 50 53  0  0  1  0            999 V2000
   32.1517  111.2875   44.3463 C   0  0  0  0  0  0
   32.6351  111.7469   43.1075 C   0  0  0  0  0  0
   31.8064  109.9303   44.5109 C   0  0  0  0  0  0
   32.7739  110.8509   42.0359 C   0  0  0  0  0  0
   34.2969  106.1686   41.2377 C   0  0  0  0  0  0
   34.8323  105.1150   41.9930 C   0  0  0  0  0  0
   33.2133  105.5701   43.7581 C   0  0  0  0  0  0
   31.9818  109.0075   43.4526 C   0  0  0  0  0  0
   32.7294  106.6938   43.0545 C   0  0  0  0  0  0
   32.4523  109.4902   42.2067 C   0  0  0  0  0  0
   33.2735  106.9714   41.7751 C   0  0  0  0  0  0
   34.3095  104.8284   43.2729 C   0  0  0  0  0  0
   27.7562  105.1484   41.6220 C   0  0  0  0  0  0
   29.4987  104.4683   40.1152 C   0  0  0  0  0  0
   26.7060  105.0492   40.4968 C   0  0  0  0  0  0
   28.4864  104.3793   38.9569 C   0  0  0  0  0  0
   29.4526  106.5825   43.2944 C   0  0  0  0  0  0
   30.5841  107.1044   44.2365 C   0  0  0  0  0  0
   30.0276  105.7685   42.1161 C   0  0  0  0  0  0
   31.8400  107.6189   43.6490 N   0  0  0  0  0  0
   29.0580  105.5145   41.0490 N   0  0  0  0  0  0
   27.1379  104.0650   39.4790 N   0  3  0  0  0  0
   35.1550  104.3136   45.3887 F   0  0  0  0  0  0
   36.0983  103.3354   43.7050 F   0  0  0  0  0  0
   34.0931  102.7676   44.3156 F   0  0  0  0  0  0
   32.7368  108.3799   40.8671 S   0  0  0  0  0  0
   34.9375  103.7864   44.1809 C   0  0  0  0  0  0
   32.0974  111.9655   45.1853 H   0  0  0  0  0  0
   32.9500  112.7771   42.9979 H   0  0  0  0  0  0
   31.4855  109.6101   45.4861 H   0  0  0  0  0  0
   33.1850  111.1883   41.0982 H   0  0  0  0  0  0
   34.7148  106.4150   40.2760 H   0  0  0  0  0  0
   35.6815  104.5575   41.6166 H   0  0  0  0  0  0
   32.8389  105.2954   44.7330 H   0  0  0  0  0  0
   27.4372  105.9123   42.3356 H   0  0  0  0  0  0
   27.8234  104.2118   42.1827 H   0  0  0  0  0  0
   29.6136  103.5107   40.6263 H   0  0  0  0  0  0
   30.4747  104.7222   39.7025 H   0  0  0  0  0  0
   25.7388  104.7538   40.9057 H   0  0  0  0  0  0
   26.5652  106.0263   40.0318 H   0  0  0  0  0  0
   28.4605  105.3235   38.4096 H   0  0  0  0  0  0
   28.7938  103.6125   38.2448 H   0  0  0  0  0  0
   28.7374  105.9853   43.8505 H   0  0  0  0  0  0
   28.8637  107.3767   42.8515 H   0  0  0  0  0  0
   30.1543  107.8509   44.9198 H   0  0  0  0  0  0
   30.9297  106.2691   44.8613 H   0  0  0  0  0  0
   30.9197  106.2580   41.7136 H   0  0  0  0  0  0
   30.3693  104.8022   42.4891 H   0  0  0  0  0  0
   27.1728  103.1543   39.9124 H   0  0  0  0  0  0
   26.4744  104.0549   38.7172 H   0  0  0  0  0  0
  1  2  2  0  0  0
  1  3  1  0  0  0
  1 28  1  0  0  0
  2  4  1  0  0  0
  2 29  1  0  0  0
  3  8  2  0  0  0
  3 30  1  0  0  0
  4 10  2  0  0  0
  4 31  1  0  0  0
  5  6  2  0  0  0
  5 11  1  0  0  0
  5 32  1  0  0  0
  6 12  1  0  0  0
  6 33  1  0  0  0
  7  9  1  0  0  0
  7 12  2  0  0  0
  7 34  1  0  0  0
  8 10  1  0  0  0
  8 20  1  0  0  0
  9 11  2  0  0  0
  9 20  1  0  0  0
 10 26  1  0  0  0
 11 26  1  0  0  0
 12 27  1  0  0  0
 13 15  1  0  0  0
 13 21  1  0  0  0
 13 35  1  0  0  0
 13 36  1  0  0  0
 14 16  1  0  0  0
 14 21  1  0  0  0
 14 37  1  0  0  0
 14 38  1  0  0  0
 15 22  1  0  0  0
 15 39  1  0  0  0
 15 40  1  0  0  0
 16 22  1  0  0  0
 16 41  1  0  0  0
 16 42  1  0  0  0
 17 18  1  0  0  0
 17 19  1  0  0  0
 17 43  1  0  0  0
 17 44  1  0  0  0
 18 20  1  0  0  0
 18 45  1  0  0  0
 18 46  1  0  0  0
 19 21  1  0  0  0
 19 47  1  0  0  0
 19 48  1  0  0  0
 22 49  1  0  0  0
 22 50  1  0  0  0
 23 27  1  0  0  0
 24 27  1  0  0  0
 25 27  1  0  0  0
M  CHG  1  22   1
M  END
> <s_m_entry_id>
517

> <s_m_entry_name>
TFP1assR.1

> <s_m_Source_Path>
/home/emilio/Dropbox/SAMPL9-eglab/mCD/ligsdfs

> <s_m_Source_File>
TFP1assR.sdf

> <i_m_Source_File_Index>
1

> <i_lp_mmshare_version>
47013

> <s_epik_input>
W2NIXTFbY0hdW2NIXVtjSF1jKGMxMilTYzNjKFtjSF1jKEMoRikoRilGKVtjSF1bY0hdMylOMltDSDJdW0NIMl1bQ0gyXU40W0NIMl1bQ0gyXVtOSF1bQ0gyXVtDSDJdNA==

> <s_epik_cmdline>
J2VwaWtfcHl0aG9uJywgJy1waHQnLCAnNC4wJywgJy1waCcsICc3LjQnLCAnLXRuJywgJzgnLCAnLW1hJywgJzIwMCcsICctaW1hZScsICc8aW5maWxlLm1hZT4nLCAnLW9tYWUnLCAnPG91dGZpbGUubWFlPic=

> <r_epik_Ionization_Penalty>
  0.0078

> <r_epik_Ionization_Penalty_Charging>
  0.0071

> <r_epik_Ionization_Penalty_Neutral>
  0.0007

> <r_epik_State_Penalty>
  0.0420

> <r_epik_Charging_Adjusted_Penalty>
0.0491285084707666

> <i_epik_Tot_Q>
1

> <i_epik_Tot_abs_Q>
1

> <s_lp_Force_Field>
OPLS3e

> <r_lp_Energy>
60.619284

> <b_lp_Chiralities_Consistent>
1

> <s_lp_Variant>
TFP-1

> <s_m_job_name>
ligprep_4

> <chiral flag>
1

> <version>
0

> <i_f3d_flags>
0

> <s_m_subgroup_title>
bCDq->ssR d_copy1

> <s_m_subgroupid>
bCDq_copy1->imported_structures_copy1

> <b_m_subgroup_collapsed>
0

$$$$
