CPZ1appR
                    3D
 Structure written by MMmdl.
 41 43  0  0  1  0            999 V2000
   26.4877  111.8481   44.8390 C   0  0  0  0  0  0
   25.4144  112.2518   45.6621 C   0  0  0  0  0  0
   27.6475  112.6430   44.7508 C   0  0  0  0  0  0
   25.5000  113.4543   46.3901 C   0  0  0  0  0  0
   29.0872  116.5908   48.5981 C   0  0  0  0  0  0
   30.4787  116.7119   48.7641 C   0  0  0  0  0  0
   30.8335  115.5544   46.6386 C   0  0  0  0  0  0
   27.7424  113.8498   45.4726 C   0  0  0  0  0  0
   29.4436  115.3888   46.4894 C   0  0  0  0  0  0
   26.6673  114.2356   46.3135 C   0  0  0  0  0  0
   28.5726  115.9168   47.4767 C   0  0  0  0  0  0
   31.3486  116.1961   47.7827 C   0  0  0  0  0  0
   28.9933  119.5225   44.2982 C   0  0  0  0  0  0
   29.9591  117.5737   45.4445 C   0  0  0  0  0  0
   28.2555  115.9006   43.5894 C   0  0  0  0  0  0
   29.4248  115.0440   44.1484 C   0  0  0  0  0  0
   27.9018  117.2453   44.1827 C   0  0  0  0  0  0
   28.9307  114.6028   45.4427 N   0  0  0  0  0  0
   29.1623  118.0450   44.3081 N   0  3  0  0  0  0
   26.8304  115.6661   47.3318 S   0  0  0  0  0  0
   33.0568  116.3342   47.9937 Cl  0  0  0  0  0  0
   26.4226  110.9173   44.2918 H   0  0  0  0  0  0
   24.5314  111.6340   45.7506 H   0  0  0  0  0  0
   28.4749  112.3126   44.1407 H   0  0  0  0  0  0
   24.6891  113.7614   47.0345 H   0  0  0  0  0  0
   28.4070  116.9812   49.3413 H   0  0  0  0  0  0
   30.8740  117.2042   49.6416 H   0  0  0  0  0  0
   31.5160  115.1615   45.8985 H   0  0  0  0  0  0
   28.2811  119.8418   45.0598 H   0  0  0  0  0  0
   28.6470  119.9247   43.3441 H   0  0  0  0  0  0
   29.9344  120.0429   44.4779 H   0  0  0  0  0  0
   29.3959  117.7556   46.3575 H   0  0  0  0  0  0
   30.9217  118.0827   45.4971 H   0  0  0  0  0  0
   30.1349  116.5044   45.3501 H   0  0  0  0  0  0
   28.4136  116.1044   42.5179 H   0  0  0  0  0  0
   27.3589  115.2892   43.6770 H   0  0  0  0  0  0
   29.5083  114.1864   43.4819 H   0  0  0  0  0  0
   30.3781  115.5693   44.1801 H   0  0  0  0  0  0
   27.1599  117.7579   43.5643 H   0  0  0  0  0  0
   27.4542  117.0758   45.1704 H   0  0  0  0  0  0
   29.7031  117.8380   43.4785 H   0  0  0  0  0  0
  1  2  2  0  0  0
  1  3  1  0  0  0
  1 22  1  0  0  0
  2  4  1  0  0  0
  2 23  1  0  0  0
  3  8  2  0  0  0
  3 24  1  0  0  0
  4 10  2  0  0  0
  4 25  1  0  0  0
  5  6  2  0  0  0
  5 11  1  0  0  0
  5 26  1  0  0  0
  6 12  1  0  0  0
  6 27  1  0  0  0
  7  9  1  0  0  0
  7 12  2  0  0  0
  7 28  1  0  0  0
  8 10  1  0  0  0
  8 18  1  0  0  0
  9 11  2  0  0  0
  9 18  1  0  0  0
 10 20  1  0  0  0
 11 20  1  0  0  0
 12 21  1  0  0  0
 13 19  1  0  0  0
 13 29  1  0  0  0
 13 30  1  0  0  0
 13 31  1  0  0  0
 14 19  1  0  0  0
 14 32  1  0  0  0
 14 33  1  0  0  0
 14 34  1  0  0  0
 15 16  1  0  0  0
 15 17  1  0  0  0
 15 35  1  0  0  0
 15 36  1  0  0  0
 16 18  1  0  0  0
 16 37  1  0  0  0
 16 38  1  0  0  0
 17 19  1  0  0  0
 17 39  1  0  0  0
 17 40  1  0  0  0
 19 41  1  0  0  0
M  CHG  1  19   1
M  END
> <i_m_stars>
0

> <s_m_entry_id>
550

> <s_m_entry_name>
CPZ1appR.1

> <s_m_Source_Path>
/home/emilio/Dropbox/SAMPL9-eglab/mCD/ligsdfs

> <s_m_Source_File>
CPZ1appR.sdf

> <i_m_Source_File_Index>
1

> <i_lp_mmshare_version>
47013

> <s_epik_input>
W2NIXTFbY0hdW2NIXVtjSF1jKGMxMilTYzNjKFtjSF1jKENsKVtjSF1bY0hdMylOMltDSDJdW0NIMl1bQ0gyXU4oW0NIM10pW0NIM10=

> <s_epik_cmdline>
J2VwaWtfcHl0aG9uJywgJy1waHQnLCAnNC4wJywgJy1waCcsICc3LjQnLCAnLXRuJywgJzgnLCAnLW1hJywgJzIwMCcsICctaW1hZScsICc8aW5maWxlLm1hZT4nLCAnLW9tYWUnLCAnPG91dGZpbGUubWFlPic=

> <r_epik_Ionization_Penalty>
  0.0036

> <r_epik_Ionization_Penalty_Charging>
  0.0036

> <r_epik_Ionization_Penalty_Neutral>
  0.0000

> <r_epik_State_Penalty>
  0.0025

> <r_epik_Charging_Adjusted_Penalty>
0.00607902823301679

> <i_epik_Tot_Q>
1

> <i_epik_Tot_abs_Q>
1

> <s_lp_Force_Field>
OPLS3e

> <r_lp_Energy>
54.329832

> <b_lp_Chiralities_Consistent>
1

> <s_lp_Variant>
CPZ-1

> <s_m_job_name>
ligprep_4

> <chiral flag>
1

> <version>
0

> <i_f3d_flags>
0

> <s_m_subgroup_title>
bCDq->ppR_copy1

> <s_m_subgroupid>
bCDq_copy1->ppR_copy1_copy1

> <b_m_subgroup_collapsed>
0

$$$$
