TFP1bppR
                    3D
 Structure written by MMmdl.
 50 53  0  0  1  0            999 V2000
   26.5397  111.6887   45.2120 C   0  0  0  0  0  0
   25.5999  112.0518   46.1686 C   0  0  0  0  0  0
   27.6168  112.5305   44.9388 C   0  0  0  0  0  0
   25.7299  113.2653   46.8343 C   0  0  0  0  0  0
   29.0923  116.4284   48.6527 C   0  0  0  0  0  0
   30.4598  116.6306   48.7973 C   0  0  0  0  0  0
   30.8229  115.5598   46.6712 C   0  0  0  0  0  0
   27.7914  113.7583   45.6107 C   0  0  0  0  0  0
   29.4441  115.3157   46.5042 C   0  0  0  0  0  0
   26.8019  114.1163   46.5543 C   0  0  0  0  0  0
   28.5859  115.7931   47.5186 C   0  0  0  0  0  0
   31.3382  116.2061   47.7996 C   0  0  0  0  0  0
   26.7694  118.4512   44.1657 C   0  0  0  0  0  0
   28.5110  118.7099   42.4788 C   0  0  0  0  0  0
   27.0756  119.8653   44.6869 C   0  0  0  0  0  0
   28.7970  120.1242   43.0094 C   0  0  0  0  0  0
   28.9519  115.5606   42.7682 C   0  0  0  0  0  0
   29.5823  114.9255   44.0890 C   0  0  0  0  0  0
   27.6960  116.4302   43.0743 C   0  0  0  0  0  0
   28.9279  114.5813   45.4082 N   0  0  0  0  0  0
   27.9603  117.8236   43.5341 N   0  3  0  0  0  0
   27.6144  120.7183   43.6297 N   0  0  0  0  0  0
   33.2733  117.1536   46.8836 F   0  0  0  0  0  0
   33.4728  115.2544   47.9062 F   0  0  0  0  0  0
   33.1812  117.0705   49.0413 F   0  0  0  0  0  0
   26.8439  115.6780   47.3490 S   0  0  0  0  0  0
   32.8448  116.4308   47.9192 C   0  0  0  0  0  0
   26.4388  110.7515   44.6850 H   0  0  0  0  0  0
   24.7653  111.4009   46.3846 H   0  0  0  0  0  0
   28.3157  112.1863   44.1934 H   0  0  0  0  0  0
   24.9807  113.5535   47.5577 H   0  0  0  0  0  0
   28.4218  116.7879   49.4200 H   0  0  0  0  0  0
   30.8249  117.1315   49.6820 H   0  0  0  0  0  0
   31.5375  115.2518   45.9274 H   0  0  0  0  0  0
   26.4358  117.8475   44.9999 H   0  0  0  0  0  0
   25.9452  118.4716   43.4560 H   0  0  0  0  0  0
   27.8295  118.7438   41.6329 H   0  0  0  0  0  0
   29.4401  118.3109   42.1039 H   0  0  0  0  0  0
   26.1896  120.3488   45.1091 H   0  0  0  0  0  0
   27.8059  119.8184   45.5016 H   0  0  0  0  0  0
   29.5995  120.0935   43.7538 H   0  0  0  0  0  0
   29.1527  120.7938   42.2192 H   0  0  0  0  0  0
   29.6479  116.2331   42.2776 H   0  0  0  0  0  0
   28.7386  114.9295   41.9112 H   0  0  0  0  0  0
   30.2902  114.1411   43.7720 H   0  0  0  0  0  0
   30.1537  115.7363   44.5611 H   0  0  0  0  0  0
   27.0288  116.4898   42.2125 H   0  0  0  0  0  0
   27.1236  115.9271   43.8407 H   0  0  0  0  0  0
   26.9249  121.0800   42.9762 H   0  0  0  0  0  0
   28.6560  117.7862   44.2668 H   0  0  0  0  0  0
  1  2  2  0  0  0
  1  3  1  0  0  0
  1 28  1  0  0  0
  2  4  1  0  0  0
  2 29  1  0  0  0
  3  8  2  0  0  0
  3 30  1  0  0  0
  4 10  2  0  0  0
  4 31  1  0  0  0
  5  6  2  0  0  0
  5 11  1  0  0  0
  5 32  1  0  0  0
  6 12  1  0  0  0
  6 33  1  0  0  0
  7  9  1  0  0  0
  7 12  2  0  0  0
  7 34  1  0  0  0
  8 10  1  0  0  0
  8 20  1  0  0  0
  9 11  2  0  0  0
  9 20  1  0  0  0
 10 26  1  0  0  0
 11 26  1  0  0  0
 12 27  1  0  0  0
 13 15  1  0  0  0
 13 21  1  0  0  0
 13 35  1  0  0  0
 13 36  1  0  0  0
 14 16  1  0  0  0
 14 21  1  0  0  0
 14 37  1  0  0  0
 14 38  1  0  0  0
 15 22  1  0  0  0
 15 39  1  0  0  0
 15 40  1  0  0  0
 16 22  1  0  0  0
 16 41  1  0  0  0
 16 42  1  0  0  0
 17 18  1  0  0  0
 17 19  1  0  0  0
 17 43  1  0  0  0
 17 44  1  0  0  0
 18 20  1  0  0  0
 18 45  1  0  0  0
 18 46  1  0  0  0
 19 21  1  0  0  0
 19 47  1  0  0  0
 19 48  1  0  0  0
 21 50  1  0  0  0
 22 49  1  0  0  0
 23 27  1  0  0  0
 24 27  1  0  0  0
 25 27  1  0  0  0
M  CHG  1  21   1
M  END
> <i_m_stars>
0

> <s_m_entry_id>
561

> <s_m_entry_name>
TFP1bppR.1

> <s_m_Source_Path>
/home/emilio/Dropbox/SAMPL9-eglab/mCD/ligsdfs

> <s_m_Source_File>
TFP1bppR.sdf

> <i_m_Source_File_Index>
1

> <i_lp_mmshare_version>
47013

> <s_epik_input>
W2NIXTFbY0hdW2NIXVtjSF1jKGMxMilTYzNjKFtjSF1jKEMoRikoRilGKVtjSF1bY0hdMylOMltDSDJdW0NIMl1bQ0gyXU40W0NIMl1bQ0gyXVtOSF1bQ0gyXVtDSDJdNA==

> <s_epik_cmdline>
J2VwaWtfcHl0aG9uJywgJy1waHQnLCAnNC4wJywgJy1waCcsICc3LjQnLCAnLXRuJywgJzgnLCAnLW1hJywgJzIwMCcsICctaW1hZScsICc8aW5maWxlLm1hZT4nLCAnLW9tYWUnLCAnPG91dGZpbGUubWFlPic=

> <r_epik_Ionization_Penalty>
  0.1004

> <r_epik_Ionization_Penalty_Charging>
  0.0867

> <r_epik_Ionization_Penalty_Neutral>
  0.0137

> <r_epik_State_Penalty>
  1.6660

> <r_epik_Charging_Adjusted_Penalty>
1.75263574697331

> <i_epik_Tot_Q>
1

> <i_epik_Tot_abs_Q>
1

> <s_lp_Force_Field>
OPLS3e

> <r_lp_Energy>
57.544639

> <b_lp_Chiralities_Consistent>
1

> <s_lp_Variant>
TFP-2

> <s_m_job_name>
ligprep_4

> <chiral flag>
1

> <version>
0

> <i_f3d_flags>
0

> <s_m_subgroup_title>
bCDq->ppR_copy1

> <s_m_subgroupid>
bCDq_copy1->ppR_copy1_copy1

> <b_m_subgroup_collapsed>
0

$$$$
