TFP1appR
                    3D
 Structure written by MMmdl.
 50 53  0  0  1  0            999 V2000
   26.1115  112.3179   44.3895 C   0  0  0  0  0  0
   25.1368  112.6686   45.3155 C   0  0  0  0  0  0
   27.3467  112.9635   44.3981 C   0  0  0  0  0  0
   25.3939  113.6795   46.2346 C   0  0  0  0  0  0
   29.0924  116.4399   48.6482 C   0  0  0  0  0  0
   30.4605  116.6381   48.7937 C   0  0  0  0  0  0
   30.8231  115.5579   46.6732 C   0  0  0  0  0  0
   27.6484  113.9783   45.3299 C   0  0  0  0  0  0
   29.4425  115.3207   46.5038 C   0  0  0  0  0  0
   26.6263  114.3375   46.2374 C   0  0  0  0  0  0
   28.5844  115.8011   47.5159 C   0  0  0  0  0  0
   31.3394  116.2062   47.7997 C   0  0  0  0  0  0
   28.6174  119.1208   44.8758 C   0  0  0  0  0  0
   30.6808  118.2242   43.9979 C   0  0  0  0  0  0
   29.3768  119.7489   46.0654 C   0  0  0  0  0  0
   31.4726  118.8690   45.1757 C   0  0  0  0  0  0
   28.9829  115.9261   42.9906 C   0  0  0  0  0  0
   29.5435  114.9359   44.0888 C   0  0  0  0  0  0
   28.4351  117.2963   43.4184 C   0  0  0  0  0  0
   28.9273  114.5818   45.4089 N   0  0  0  0  0  0
   29.3072  117.9081   44.4429 N   0  0  0  0  0  0
   30.7652  120.0545   45.6889 N   0  3  0  0  0  0
   33.4788  115.2462   47.7750 F   0  0  0  0  0  0
   33.1976  116.9217   49.1088 F   0  0  0  0  0  0
   33.2622  117.2459   46.9718 F   0  0  0  0  0  0
   26.8433  115.6772   47.3485 S   0  0  0  0  0  0
   32.8482  116.4119   47.9260 C   0  0  0  0  0  0
   25.9135  111.5409   43.6660 H   0  0  0  0  0  0
   24.1797  112.1683   45.3124 H   0  0  0  0  0  0
   28.0582  112.6418   43.6573 H   0  0  0  0  0  0
   24.6223  113.9654   46.9352 H   0  0  0  0  0  0
   28.4225  116.8019   49.4148 H   0  0  0  0  0  0
   30.8263  117.1394   49.6780 H   0  0  0  0  0  0
   31.5387  115.2320   45.9354 H   0  0  0  0  0  0
   27.5950  118.8679   45.1970 H   0  0  0  0  0  0
   28.5531  119.8210   44.0425 H   0  0  0  0  0  0
   30.6580  118.9103   43.1512 H   0  0  0  0  0  0
   31.2207  117.3176   43.6815 H   0  0  0  0  0  0
   28.8614  120.6640   46.3801 H   0  0  0  0  0  0
   29.3645  119.0597   46.9183 H   0  0  0  0  0  0
   31.6105  118.1369   45.9833 H   0  0  0  0  0  0
   32.4810  119.1567   44.8433 H   0  0  0  0  0  0
   29.6636  115.9786   42.1347 H   0  0  0  0  0  0
   27.9768  115.6107   42.7221 H   0  0  0  0  0  0
   29.9954  114.0800   43.6067 H   0  0  0  0  0  0
   30.4096  115.4636   44.4399 H   0  0  0  0  0  0
   28.3778  117.9708   42.5521 H   0  0  0  0  0  0
   27.4202  117.1732   43.7894 H   0  0  0  0  0  0
   30.7624  120.7553   44.9788 H   0  0  0  0  0  0
   31.2593  120.4275   46.4832 H   0  0  0  0  0  0
  1  2  2  0  0  0
  1  3  1  0  0  0
  1 28  1  0  0  0
  2  4  1  0  0  0
  2 29  1  0  0  0
  3  8  2  0  0  0
  3 30  1  0  0  0
  4 10  2  0  0  0
  4 31  1  0  0  0
  5  6  2  0  0  0
  5 11  1  0  0  0
  5 32  1  0  0  0
  6 12  1  0  0  0
  6 33  1  0  0  0
  7  9  1  0  0  0
  7 12  2  0  0  0
  7 34  1  0  0  0
  8 10  1  0  0  0
  8 20  1  0  0  0
  9 11  2  0  0  0
  9 20  1  0  0  0
 10 26  1  0  0  0
 11 26  1  0  0  0
 12 27  1  0  0  0
 13 15  1  0  0  0
 13 21  1  0  0  0
 13 35  1  0  0  0
 13 36  1  0  0  0
 14 16  1  0  0  0
 14 21  1  0  0  0
 14 37  1  0  0  0
 14 38  1  0  0  0
 15 22  1  0  0  0
 15 39  1  0  0  0
 15 40  1  0  0  0
 16 22  1  0  0  0
 16 41  1  0  0  0
 16 42  1  0  0  0
 17 18  1  0  0  0
 17 19  1  0  0  0
 17 43  1  0  0  0
 17 44  1  0  0  0
 18 20  1  0  0  0
 18 45  1  0  0  0
 18 46  1  0  0  0
 19 21  1  0  0  0
 19 47  1  0  0  0
 19 48  1  0  0  0
 22 49  1  0  0  0
 22 50  1  0  0  0
 23 27  1  0  0  0
 24 27  1  0  0  0
 25 27  1  0  0  0
M  CHG  1  22   1
M  END
> <i_m_stars>
0

> <s_m_entry_id>
560

> <s_m_entry_name>
TFP1appR.1

> <s_m_Source_Path>
/home/emilio/Dropbox/SAMPL9-eglab/mCD/ligsdfs

> <s_m_Source_File>
TFP1appR.sdf

> <i_m_Source_File_Index>
1

> <i_lp_mmshare_version>
47013

> <s_epik_input>
W2NIXTFbY0hdW2NIXVtjSF1jKGMxMilTYzNjKFtjSF1jKEMoRikoRilGKVtjSF1bY0hdMylOMltDSDJdW0NIMl1bQ0gyXU40W0NIMl1bQ0gyXVtOSF1bQ0gyXVtDSDJdNA==

> <s_epik_cmdline>
J2VwaWtfcHl0aG9uJywgJy1waHQnLCAnNC4wJywgJy1waCcsICc3LjQnLCAnLXRuJywgJzgnLCAnLW1hJywgJzIwMCcsICctaW1hZScsICc8aW5maWxlLm1hZT4nLCAnLW9tYWUnLCAnPG91dGZpbGUubWFlPic=

> <r_epik_Ionization_Penalty>
  0.0078

> <r_epik_Ionization_Penalty_Charging>
  0.0071

> <r_epik_Ionization_Penalty_Neutral>
  0.0007

> <r_epik_State_Penalty>
  0.0420

> <r_epik_Charging_Adjusted_Penalty>
0.0491285084707666

> <i_epik_Tot_Q>
1

> <i_epik_Tot_abs_Q>
1

> <s_lp_Force_Field>
OPLS3e

> <r_lp_Energy>
60.619284

> <b_lp_Chiralities_Consistent>
1

> <s_lp_Variant>
TFP-1

> <s_m_job_name>
ligprep_4

> <chiral flag>
1

> <version>
0

> <i_f3d_flags>
0

> <s_m_subgroup_title>
bCDq->ppR_copy1

> <s_m_subgroupid>
bCDq_copy1->ppR_copy1_copy1

> <b_m_subgroup_collapsed>
0

$$$$
