PMT1appR
                    3D
 Structure written by MMmdl.
 41 43  0  0  1  0            999 V2000
   26.3721  112.0063   44.6279 C   0  0  0  0  0  0
   31.3485  116.1967   47.7835 C   0  0  0  0  0  0
   25.3410  112.3588   45.5195 C   0  0  0  0  0  0
   30.4726  116.7536   48.7361 C   0  0  0  0  0  0
   27.5438  112.7844   44.5580 C   0  0  0  0  0  0
   30.8385  115.5094   46.6654 C   0  0  0  0  0  0
   25.4710  113.4960   46.3353 C   0  0  0  0  0  0
   29.0829  116.6240   48.5746 C   0  0  0  0  0  0
   27.7058  113.9115   45.3974 C   0  0  0  0  0  0
   29.4442  115.3709   46.4970 C   0  0  0  0  0  0
   26.6443  114.2742   46.2659 C   0  0  0  0  0  0
   28.5695  115.9212   47.4677 C   0  0  0  0  0  0
   29.3742  116.1541   41.6444 C   0  0  0  0  0  0
   27.1907  117.9650   43.6521 C   0  0  0  0  0  0
   29.5473  118.3947   43.2307 C   0  0  0  0  0  0
   29.4149  115.0370   44.0835 C   0  0  0  0  0  0
   28.6925  116.0074   43.0389 C   0  0  1  0  0  0
   28.9350  114.5999   45.4370 N   0  0  0  0  0  0
   28.5521  117.3712   43.6611 N   0  3  0  0  0  0
   26.8264  115.6688   47.3365 S   0  0  0  0  0  0
   26.2883  111.1065   44.0318 H   0  0  0  0  0  0
   32.4175  116.2785   47.9251 H   0  0  0  0  0  0
   24.4689  111.7315   45.6026 H   0  0  0  0  0  0
   30.8693  117.2633   49.6021 H   0  0  0  0  0  0
   28.3506  112.4724   43.9125 H   0  0  0  0  0  0
   31.5142  115.0497   45.9600 H   0  0  0  0  0  0
   24.7024  113.7384   47.0544 H   0  0  0  0  0  0
   28.4105  117.0349   49.3131 H   0  0  0  0  0  0
   29.5568  115.2653   41.0526 H   0  0  0  0  0  0
   30.3921  116.5490   41.7197 H   0  0  0  0  0  0
   28.7776  116.7790   40.9658 H   0  0  0  0  0  0
   26.8245  118.1254   42.6324 H   0  0  0  0  0  0
   27.1926  118.9469   44.1340 H   0  0  0  0  0  0
   26.4570  117.3654   44.1936 H   0  0  0  0  0  0
   29.4881  118.6032   42.1585 H   0  0  0  0  0  0
   30.5663  118.0805   43.4593 H   0  0  0  0  0  0
   29.3854  119.3692   43.6900 H   0  0  0  0  0  0
   29.4695  114.0692   43.5530 H   0  0  0  0  0  0
   30.4346  115.4208   44.2286 H   0  0  0  0  0  0
   27.6871  115.6493   42.8655 H   0  0  0  0  0  0
   28.7524  117.2241   44.6499 H   0  0  0  0  0  0
  1  3  2  0  0  0
  1  5  1  0  0  0
  1 21  1  0  0  0
  2  4  2  0  0  0
  2  6  1  0  0  0
  2 22  1  0  0  0
  3  7  1  0  0  0
  3 23  1  0  0  0
  4  8  1  0  0  0
  4 24  1  0  0  0
  5  9  2  0  0  0
  5 25  1  0  0  0
  6 10  2  0  0  0
  6 26  1  0  0  0
  7 11  2  0  0  0
  7 27  1  0  0  0
  8 12  2  0  0  0
  8 28  1  0  0  0
  9 11  1  0  0  0
  9 18  1  0  0  0
 10 12  1  0  0  0
 10 18  1  0  0  0
 11 20  1  0  0  0
 12 20  1  0  0  0
 13 17  1  0  0  0
 13 29  1  0  0  0
 13 30  1  0  0  0
 13 31  1  0  0  0
 14 19  1  0  0  0
 14 32  1  0  0  0
 14 33  1  0  0  0
 14 34  1  0  0  0
 15 19  1  0  0  0
 15 35  1  0  0  0
 15 36  1  0  0  0
 15 37  1  0  0  0
 16 17  1  0  0  0
 16 18  1  0  0  0
 16 38  1  0  0  0
 16 39  1  0  0  0
 17 19  1  0  0  0
 17 40  1  0  0  0
 19 41  1  0  0  0
M  CHG  1  19   1
M  END
> <i_m_stars>
0

> <s_m_entry_id>
552

> <s_m_entry_name>
PMT1appR.1

> <s_m_Source_Path>
/home/emilio/Dropbox/SAMPL9-eglab/mCD/ligsdfs

> <s_m_Source_File>
PMT1appR.sdf

> <i_m_Source_File_Index>
1

> <i_lp_mmshare_version>
47013

> <s_epik_input>
W2NIXTFbY0hdW2NIXVtjSF1jKGMxMilTYzNjKFtjSF1bY0hdW2NIXVtjSF0zKU4yW0NIMl1bQ0BIXShbQ0gzXSlOKFtDSDNdKVtDSDNd

> <s_epik_cmdline>
J2VwaWtfcHl0aG9uJywgJy1waHQnLCAnNC4wJywgJy1waCcsICc3LjQnLCAnLXRuJywgJzgnLCAnLW1hJywgJzIwMCcsICctaW1hZScsICc8aW5maWxlLm1hZT4nLCAnLW9tYWUnLCAnPG91dGZpbGUubWFlPic=

> <r_epik_Ionization_Penalty>
  0.0045

> <r_epik_Ionization_Penalty_Charging>
  0.0045

> <r_epik_Ionization_Penalty_Neutral>
  0.0000

> <r_epik_State_Penalty>
  0.0032

> <r_epik_Charging_Adjusted_Penalty>
0.00770832931686598

> <i_epik_Tot_Q>
1

> <i_epik_Tot_abs_Q>
1

> <s_lp_Force_Field>
OPLS3e

> <r_lp_Energy>
58.361695

> <b_lp_Chiralities_Consistent>
1

> <s_lp_Variant>
PMT-1

> <s_m_job_name>
ligprep_4

> <chiral flag>
1

> <version>
0

> <i_f3d_flags>
0

> <s_m_subgroup_title>
bCDq->ppR_copy1

> <s_m_subgroupid>
bCDq_copy1->ppR_copy1_copy1

> <b_m_subgroup_collapsed>
0

$$$$
