TDZNS1appR
                    3D
 Structure written by MMmdl.
 52 55  0  0  1  0            999 V2000
   26.4057  111.8809   44.7887 C   0  0  0  0  0  0
   25.3794  112.2638   45.6712 C   0  0  0  0  0  0
   27.5646  112.6734   44.6648 C   0  0  0  0  0  0
   25.5093  113.4419   46.4259 C   0  0  0  0  0  0
   29.0822  116.6666   48.5350 C   0  0  0  0  0  0
   30.4704  116.8115   48.7055 C   0  0  0  0  0  0
   30.8498  115.4684   46.7030 C   0  0  0  0  0  0
   27.7199  113.8496   45.4387 C   0  0  0  0  0  0
   29.4560  115.3459   46.4969 C   0  0  0  0  0  0
   26.6724  114.2299   46.3151 C   0  0  0  0  0  0
   28.5785  115.9269   47.4481 C   0  0  0  0  0  0
   31.3547  116.2034   47.7937 C   0  0  0  0  0  0
   29.2789  119.2685   42.3807 C   0  0  0  0  0  0
   30.3710  119.7338   43.3518 C   0  0  0  0  0  0
   28.1480  118.5586   43.1519 C   0  0  0  0  0  0
   30.8714  118.5738   44.2314 C   0  0  0  0  0  0
   28.6796  117.3694   43.9938 C   0  0  1  0  0  0
   30.1991  116.9064   45.9423 C   0  0  0  0  0  0
   33.9144  115.0192   47.1403 C   0  0  0  0  0  0
   29.0865  116.0987   43.1543 C   0  0  0  0  0  0
   29.5253  114.9092   44.1043 C   0  0  0  0  0  0
   28.9206  114.5947   45.4298 N   0  0  0  0  0  0
   29.7310  117.8837   44.9206 N   0  3  1  0  0  0
   26.8344  115.6673   47.3334 S   0  0  0  0  0  0
   33.0950  116.3586   48.0495 S   0  0  0  0  0  0
   26.3203  110.9562   44.2335 H   0  0  0  0  0  0
   24.5089  111.6365   45.7928 H   0  0  0  0  0  0
   28.3511  112.3240   44.0132 H   0  0  0  0  0  0
   24.7372  113.7230   47.1257 H   0  0  0  0  0  0
   28.3994  117.0867   49.2577 H   0  0  0  0  0  0
   30.8565  117.3460   49.5619 H   0  0  0  0  0  0
   31.5293  114.9560   46.0459 H   0  0  0  0  0  0
   28.8893  120.1248   41.8230 H   0  0  0  0  0  0
   29.7043  118.6030   41.6320 H   0  0  0  0  0  0
   31.2096  120.1609   42.7928 H   0  0  0  0  0  0
   29.9893  120.5450   43.9746 H   0  0  0  0  0  0
   27.6776  119.3048   43.8012 H   0  0  0  0  0  0
   27.3652  118.2453   42.4642 H   0  0  0  0  0  0
   31.4270  117.8574   43.6332 H   0  0  0  0  0  0
   31.5664  118.9724   44.9730 H   0  0  0  0  0  0
   27.8487  117.0896   44.6447 H   0  0  0  0  0  0
   30.7886  116.1058   45.5093 H   0  0  0  0  0  0
   29.3513  116.4591   46.4628 H   0  0  0  0  0  0
   30.8352  117.3838   46.6861 H   0  0  0  0  0  0
   34.9690  114.9806   47.4130 H   0  0  0  0  0  0
   33.8460  115.1867   46.0663 H   0  0  0  0  0  0
   33.4645  114.0547   47.3786 H   0  0  0  0  0  0
   28.2488  115.8302   42.5239 H   0  0  0  0  0  0
   29.8730  116.3282   42.4500 H   0  0  0  0  0  0
   29.5506  113.9749   43.5080 H   0  0  0  0  0  0
   30.5625  115.1411   44.4211 H   0  0  0  0  0  0
   29.2946  118.6175   45.4607 H   0  0  0  0  0  0
  1  2  2  0  0  0
  1  3  1  0  0  0
  1 26  1  0  0  0
  2  4  1  0  0  0
  2 27  1  0  0  0
  3  8  2  0  0  0
  3 28  1  0  0  0
  4 10  2  0  0  0
  4 29  1  0  0  0
  5  6  2  0  0  0
  5 11  1  0  0  0
  5 30  1  0  0  0
  6 12  1  0  0  0
  6 31  1  0  0  0
  7  9  1  0  0  0
  7 12  2  0  0  0
  7 32  1  0  0  0
  8 10  1  0  0  0
  8 22  1  0  0  0
  9 11  2  0  0  0
  9 22  1  0  0  0
 10 24  1  0  0  0
 11 24  1  0  0  0
 12 25  1  0  0  0
 13 14  1  0  0  0
 13 15  1  0  0  0
 13 33  1  0  0  0
 13 34  1  0  0  0
 14 16  1  0  0  0
 14 35  1  0  0  0
 14 36  1  0  0  0
 15 17  1  0  0  0
 15 37  1  0  0  0
 15 38  1  0  0  0
 16 23  1  0  0  0
 16 39  1  0  0  0
 16 40  1  0  0  0
 17 20  1  0  0  0
 17 23  1  0  0  0
 17 41  1  0  0  0
 18 23  1  0  0  0
 18 42  1  0  0  0
 18 43  1  0  0  0
 18 44  1  0  0  0
 19 25  1  0  0  0
 19 45  1  0  0  0
 19 46  1  0  0  0
 19 47  1  0  0  0
 20 21  1  0  0  0
 20 48  1  0  0  0
 20 49  1  0  0  0
 21 22  1  0  0  0
 21 50  1  0  0  0
 21 51  1  0  0  0
 23 52  1  0  0  0
M  CHG  1  23   1
M  END
> <i_m_stars>
0

> <s_m_entry_id>
558

> <s_m_entry_name>
TDZNS1appR.1

> <s_m_Source_Path>
/home/emilio/Dropbox/SAMPL9-eglab/mCD/ligsdfs

> <s_m_Source_File>
TDZNS1appR.sdf

> <i_m_Source_File_Index>
1

> <i_lp_mmshare_version>
47013

> <s_epik_input>
W2NIXTFbY0hdW2NIXVtjSF1jKGMxMilTYzNjKFtjSF1jKFtjSF1bY0hdMylTW0NIM10pTjJbQ0gyXVtDSDJdW0NAQEhdNFtDSDJdW0NIMl1bQ0gyXVtDSDJdTjRbQ0gzXQ==

> <s_epik_cmdline>
J2VwaWtfcHl0aG9uJywgJy1waHQnLCAnNC4wJywgJy1waCcsICc3LjQnLCAnLXRuJywgJzgnLCAnLW1hJywgJzIwMCcsICctaW1hZScsICc8aW5maWxlLm1hZT4nLCAnLW9tYWUnLCAnPG91dGZpbGUubWFlPic=

> <r_epik_Ionization_Penalty>
  0.0017

> <r_epik_Ionization_Penalty_Charging>
  0.0017

> <r_epik_Ionization_Penalty_Neutral>
  0.0000

> <r_epik_State_Penalty>
  0.0011

> <r_epik_Charging_Adjusted_Penalty>
0.00279136850725907

> <i_epik_Tot_Q>
1

> <i_epik_Tot_abs_Q>
1

> <s_lp_Force_Field>
OPLS3e

> <r_lp_Energy>
57.252618

> <b_lp_Chiralities_Consistent>
1

> <s_lp_Variant>
TDZ-NS-1

> <s_m_job_name>
ligprep_4

> <chiral flag>
1

> <version>
0

> <i_f3d_flags>
0

> <s_m_subgroup_title>
bCDq->ppR_copy1

> <s_m_subgroupid>
bCDq_copy1->ppR_copy1_copy1

> <b_m_subgroup_collapsed>
0

$$$$
