TDZNR1appR
                    3D
 Structure written by MMmdl.
 52 55  0  0  1  0            999 V2000
   26.4367  111.8672   44.7895 C   0  0  0  0  0  0
   25.4052  112.2441   45.6689 C   0  0  0  0  0  0
   27.5846  112.6753   44.6579 C   0  0  0  0  0  0
   25.5186  113.4284   46.4193 C   0  0  0  0  0  0
   29.0867  116.6898   48.5258 C   0  0  0  0  0  0
   30.4744  116.8255   48.6946 C   0  0  0  0  0  0
   30.8447  115.4708   46.6994 C   0  0  0  0  0  0
   27.7249  113.8530   45.4303 C   0  0  0  0  0  0
   29.4550  115.3576   46.4980 C   0  0  0  0  0  0
   26.6727  114.2260   46.3073 C   0  0  0  0  0  0
   28.5801  115.9412   47.4438 C   0  0  0  0  0  0
   31.3550  116.2018   47.7911 C   0  0  0  0  0  0
   28.0786  119.7092   43.1367 C   0  0  0  0  0  0
   28.8787  120.1216   41.8973 C   0  0  0  0  0  0
   27.8160  118.1831   43.1209 C   0  0  0  0  0  0
   30.1650  119.2880   41.8026 C   0  0  0  0  0  0
   29.1127  117.3289   42.9881 C   0  0  1  0  0  0
   31.1324  117.0573   41.5235 C   0  0  0  0  0  0
   33.3526  117.3082   49.5582 C   0  0  0  0  0  0
   28.8210  115.7813   42.9563 C   0  0  0  0  0  0
   29.5498  114.9555   44.1041 C   0  0  0  0  0  0
   28.9190  114.5988   45.4367 N   0  0  0  0  0  0
   29.8850  117.8143   41.7955 N   0  3  2  0  0  0
   26.8358  115.6646   47.3290 S   0  0  0  0  0  0
   33.0956  116.3186   48.0562 S   0  0  0  0  0  0
   26.3664  110.9359   44.2468 H   0  0  0  0  0  0
   24.5453  111.6021   45.7993 H   0  0  0  0  0  0
   28.3801  112.3372   44.0118 H   0  0  0  0  0  0
   24.7449  113.6994   47.1187 H   0  0  0  0  0  0
   28.4062  117.1138   49.2470 H   0  0  0  0  0  0
   30.8637  117.3558   49.5537 H   0  0  0  0  0  0
   31.5204  114.9509   46.0398 H   0  0  0  0  0  0
   28.6287  119.9878   44.0397 H   0  0  0  0  0  0
   27.1401  120.2739   43.1746 H   0  0  0  0  0  0
   28.2716  119.9887   40.9988 H   0  0  0  0  0  0
   29.1208  121.1864   41.9402 H   0  0  0  0  0  0
   27.2748  117.9354   44.0337 H   0  0  0  0  0  0
   27.1215  117.9737   42.3009 H   0  0  0  0  0  0
   30.6988  119.5795   40.8902 H   0  0  0  0  0  0
   30.8306  119.5378   42.6348 H   0  0  0  0  0  0
   29.7126  117.5704   43.8749 H   0  0  0  0  0  0
   31.8013  117.0845   42.3850 H   0  0  0  0  0  0
   31.6627  117.4586   40.6605 H   0  0  0  0  0  0
   30.9457  116.0146   41.2842 H   0  0  0  0  0  0
   34.4022  117.5899   49.6474 H   0  0  0  0  0  0
   33.0772  116.7363   50.4441 H   0  0  0  0  0  0
   32.7557  118.2214   49.5288 H   0  0  0  0  0  0
   27.7434  115.6801   43.0263 H   0  0  0  0  0  0
   29.0222  115.3859   41.9662 H   0  0  0  0  0  0
   29.9356  114.0232   43.6461 H   0  0  0  0  0  0
   30.4212  115.5541   44.4144 H   0  0  0  0  0  0
   29.2809  117.6778   40.9866 H   0  0  0  0  0  0
  1  2  2  0  0  0
  1  3  1  0  0  0
  1 26  1  0  0  0
  2  4  1  0  0  0
  2 27  1  0  0  0
  3  8  2  0  0  0
  3 28  1  0  0  0
  4 10  2  0  0  0
  4 29  1  0  0  0
  5  6  2  0  0  0
  5 11  1  0  0  0
  5 30  1  0  0  0
  6 12  1  0  0  0
  6 31  1  0  0  0
  7  9  1  0  0  0
  7 12  2  0  0  0
  7 32  1  0  0  0
  8 10  1  0  0  0
  8 22  1  0  0  0
  9 11  2  0  0  0
  9 22  1  0  0  0
 10 24  1  0  0  0
 11 24  1  0  0  0
 12 25  1  0  0  0
 13 14  1  0  0  0
 13 15  1  0  0  0
 13 33  1  0  0  0
 13 34  1  0  0  0
 14 16  1  0  0  0
 14 35  1  0  0  0
 14 36  1  0  0  0
 15 17  1  0  0  0
 15 37  1  0  0  0
 15 38  1  0  0  0
 16 23  1  0  0  0
 16 39  1  0  0  0
 16 40  1  0  0  0
 17 20  1  0  0  0
 17 23  1  0  0  0
 17 41  1  0  0  0
 18 23  1  0  0  0
 18 42  1  0  0  0
 18 43  1  0  0  0
 18 44  1  0  0  0
 19 25  1  0  0  0
 19 45  1  0  0  0
 19 46  1  0  0  0
 19 47  1  0  0  0
 20 21  1  0  0  0
 20 48  1  0  0  0
 20 49  1  0  0  0
 21 22  1  0  0  0
 21 50  1  0  0  0
 21 51  1  0  0  0
 23 52  1  0  0  0
M  CHG  1  23   1
M  END
> <i_m_stars>
0

> <s_m_entry_id>
556

> <s_m_entry_name>
TDZNR1appR.1

> <s_m_Source_Path>
/home/emilio/Dropbox/SAMPL9-eglab/mCD/ligsdfs

> <s_m_Source_File>
TDZNR1appR.sdf

> <i_m_Source_File_Index>
1

> <i_lp_mmshare_version>
47013

> <s_epik_input>
W2NIXTFbY0hdW2NIXVtjSF1jKGMxMilTYzNjKFtjSF1jKFtjSF1bY0hdMylTW0NIM10pTjJbQ0gyXVtDSDJdW0NAQEhdNFtDSDJdW0NIMl1bQ0gyXVtDSDJdTjRbQ0gzXQ==

> <s_epik_cmdline>
J2VwaWtfcHl0aG9uJywgJy1waHQnLCAnNC4wJywgJy1waCcsICc3LjQnLCAnLXRuJywgJzgnLCAnLW1hJywgJzIwMCcsICctaW1hZScsICc8aW5maWxlLm1hZT4nLCAnLW9tYWUnLCAnPG91dGZpbGUubWFlPic=

> <r_epik_Ionization_Penalty>
  0.0017

> <r_epik_Ionization_Penalty_Charging>
  0.0017

> <r_epik_Ionization_Penalty_Neutral>
  0.0000

> <r_epik_State_Penalty>
  0.0011

> <r_epik_Charging_Adjusted_Penalty>
0.00279136850725907

> <i_epik_Tot_Q>
1

> <i_epik_Tot_abs_Q>
1

> <s_lp_Force_Field>
OPLS3e

> <r_lp_Energy>
55.960333

> <b_lp_Chiralities_Consistent>
1

> <s_lp_Variant>
TDZ-NR-1

> <s_m_job_name>
ligprep_4

> <chiral flag>
1

> <version>
0

> <i_f3d_flags>
0

> <s_m_subgroup_title>
bCDq->ppR_copy1

> <s_m_subgroupid>
bCDq_copy1->ppR_copy1_copy1

> <b_m_subgroup_collapsed>
0

$$$$
