TDZNR1assR
                    3D
 Structure written by MMmdl.
 52 55  0  0  1  0            999 V2000
   31.7134  111.3427   44.1742 C   0  0  0  0  0  0
   32.0988  111.7972   42.9013 C   0  0  0  0  0  0
   31.6235  109.9613   44.4338 C   0  0  0  0  0  0
   32.4041  110.8646   41.8948 C   0  0  0  0  0  0
   34.2826  106.1710   41.2414 C   0  0  0  0  0  0
   34.7726  105.0657   41.9592 C   0  0  0  0  0  0
   33.3576  105.6891   43.8450 C   0  0  0  0  0  0
   31.9155  109.0066   43.4276 C   0  0  0  0  0  0
   32.8306  106.7898   43.1252 C   0  0  0  0  0  0
   32.3264  109.4827   42.1550 C   0  0  0  0  0  0
   33.3272  107.0302   41.8180 C   0  0  0  0  0  0
   34.3113  104.8304   43.2667 C   0  0  0  0  0  0
   29.6236  105.4703   39.5683 C   0  0  0  0  0  0
   30.1298  104.0552   39.8528 C   0  0  0  0  0  0
   29.0757  106.0768   40.8579 C   0  0  0  0  0  0
   31.1644  104.0644   40.9911 C   0  0  0  0  0  0
   30.1375  106.0811   41.9880 C   0  0  1  0  0  0
   31.6579  104.6015   43.3169 C   0  0  0  0  0  0
   36.5824  103.0967   43.6614 C   0  0  0  0  0  0
   29.5234  106.7580   43.2328 C   0  0  0  0  0  0
   30.6124  107.0957   44.2726 C   0  0  0  0  0  0
   31.8255  107.6172   43.6795 N   0  0  0  0  0  0
   30.6389  104.6920   42.2359 N   0  3  2  0  0  0
   32.7498  108.3801   40.8429 S   0  0  0  0  0  0
   34.8817  103.4421   44.1942 S   0  0  0  0  0  0
   31.4995  112.0553   44.9575 H   0  0  0  0  0  0
   32.1750  112.8566   42.7001 H   0  0  0  0  0  0
   31.3606  109.6698   45.4371 H   0  0  0  0  0  0
   32.7157  111.2102   40.9197 H   0  0  0  0  0  0
   34.6420  106.3623   40.2404 H   0  0  0  0  0  0
   35.4978  104.4122   41.4969 H   0  0  0  0  0  0
   33.0629  105.4894   44.8617 H   0  0  0  0  0  0
   30.4310  106.0941   39.1787 H   0  0  0  0  0  0
   28.8501  105.4520   38.7975 H   0  0  0  0  0  0
   29.2910  103.4039   40.1054 H   0  0  0  0  0  0
   30.5758  103.6394   38.9466 H   0  0  0  0  0  0
   28.7267  107.0867   40.6423 H   0  0  0  0  0  0
   28.1844  105.5278   41.1692 H   0  0  0  0  0  0
   31.4764  103.0375   41.1903 H   0  0  0  0  0  0
   32.0575  104.6024   40.6636 H   0  0  0  0  0  0
   30.9894  106.6800   41.6650 H   0  0  0  0  0  0
   32.4911  105.2795   43.1229 H   0  0  0  0  0  0
   32.0635  103.5906   43.3891 H   0  0  0  0  0  0
   31.2539  104.8307   44.3016 H   0  0  0  0  0  0
   37.0317  102.3411   44.3059 H   0  0  0  0  0  0
   37.1913  103.9991   43.7189 H   0  0  0  0  0  0
   36.6050  102.7223   42.6383 H   0  0  0  0  0  0
   28.9837  107.6429   42.8974 H   0  0  0  0  0  0
   28.7716  106.1632   43.7459 H   0  0  0  0  0  0
   30.2018  107.8283   44.9635 H   0  0  0  0  0  0
   30.8864  106.2400   44.8841 H   0  0  0  0  0  0
   29.8461  104.1372   42.5294 H   0  0  0  0  0  0
  1  2  2  0  0  0
  1  3  1  0  0  0
  1 26  1  0  0  0
  2  4  1  0  0  0
  2 27  1  0  0  0
  3  8  2  0  0  0
  3 28  1  0  0  0
  4 10  2  0  0  0
  4 29  1  0  0  0
  5  6  2  0  0  0
  5 11  1  0  0  0
  5 30  1  0  0  0
  6 12  1  0  0  0
  6 31  1  0  0  0
  7  9  1  0  0  0
  7 12  2  0  0  0
  7 32  1  0  0  0
  8 10  1  0  0  0
  8 22  1  0  0  0
  9 11  2  0  0  0
  9 22  1  0  0  0
 10 24  1  0  0  0
 11 24  1  0  0  0
 12 25  1  0  0  0
 13 14  1  0  0  0
 13 15  1  0  0  0
 13 33  1  0  0  0
 13 34  1  0  0  0
 14 16  1  0  0  0
 14 35  1  0  0  0
 14 36  1  0  0  0
 15 17  1  0  0  0
 15 37  1  0  0  0
 15 38  1  0  0  0
 16 23  1  0  0  0
 16 39  1  0  0  0
 16 40  1  0  0  0
 17 20  1  0  0  0
 17 23  1  0  0  0
 17 41  1  0  0  0
 18 23  1  0  0  0
 18 42  1  0  0  0
 18 43  1  0  0  0
 18 44  1  0  0  0
 19 25  1  0  0  0
 19 45  1  0  0  0
 19 46  1  0  0  0
 19 47  1  0  0  0
 20 21  1  0  0  0
 20 48  1  0  0  0
 20 49  1  0  0  0
 21 22  1  0  0  0
 21 50  1  0  0  0
 21 51  1  0  0  0
 23 52  1  0  0  0
M  CHG  1  23   1
M  END
> <s_m_entry_id>
513

> <s_m_entry_name>
TDZNR1assR.1

> <s_m_Source_Path>
/home/emilio/Dropbox/SAMPL9-eglab/mCD/ligsdfs

> <s_m_Source_File>
TDZNR1assR.sdf

> <i_m_Source_File_Index>
1

> <i_lp_mmshare_version>
47013

> <s_epik_input>
W2NIXTFbY0hdW2NIXVtjSF1jKGMxMilTYzNjKFtjSF1jKFtjSF1bY0hdMylTW0NIM10pTjJbQ0gyXVtDSDJdW0NAQEhdNFtDSDJdW0NIMl1bQ0gyXVtDSDJdTjRbQ0gzXQ==

> <s_epik_cmdline>
J2VwaWtfcHl0aG9uJywgJy1waHQnLCAnNC4wJywgJy1waCcsICc3LjQnLCAnLXRuJywgJzgnLCAnLW1hJywgJzIwMCcsICctaW1hZScsICc8aW5maWxlLm1hZT4nLCAnLW9tYWUnLCAnPG91dGZpbGUubWFlPic=

> <r_epik_Ionization_Penalty>
  0.0017

> <r_epik_Ionization_Penalty_Charging>
  0.0017

> <r_epik_Ionization_Penalty_Neutral>
  0.0000

> <r_epik_State_Penalty>
  0.0011

> <r_epik_Charging_Adjusted_Penalty>
0.00279136850725907

> <i_epik_Tot_Q>
1

> <i_epik_Tot_abs_Q>
1

> <s_lp_Force_Field>
OPLS3e

> <r_lp_Energy>
55.960333

> <b_lp_Chiralities_Consistent>
1

> <s_lp_Variant>
TDZ-NR-1

> <s_m_job_name>
ligprep_4

> <chiral flag>
1

> <version>
0

> <i_f3d_flags>
0

> <s_m_subgroup_title>
bCDq->ssR d_copy1

> <s_m_subgroupid>
bCDq_copy1->imported_structures_copy1

> <b_m_subgroup_collapsed>
0

$$$$
