PMZ1assS
                    3D
 Schrodinger Suite 2019-4.
 41 43  0  0  1  0            999 V2000
   25.7541  107.6851   39.9518 C   0  0  0  0  0  0
   19.9474  105.7537   41.5676 C   0  0  0  0  0  0
   25.5969  108.8403   40.7073 C   0  0  0  0  0  0
   19.7553  106.9016   42.3265 C   0  0  0  0  0  0
   24.6528  107.1084   39.3218 C   0  0  0  0  0  0
   20.7306  105.8026   40.4162 C   0  0  0  0  0  0
   24.3412  109.4274   40.8116 C   0  0  0  0  0  0
   20.3319  108.0993   41.9196 C   0  0  0  0  0  0
   23.3605  107.6638   39.4263 C   0  0  0  0  0  0
   21.3476  106.9967   39.9851 C   0  0  0  0  0  0
   23.2378  108.8592   40.1704 C   0  0  0  0  0  0
   21.1077  108.1543   40.7591 C   0  0  0  0  0  0
   22.2973  107.8368   33.4924 C   0  0  0  0  0  0
   21.9517  105.4569   32.6900 C   0  0  0  0  0  0
   21.7534  106.7069   36.3820 C   0  0  0  0  0  0
   22.1870  106.0889   37.7367 C   0  0  0  0  0  0
   22.2525  105.8834   35.1820 C   0  0  0  0  0  0
   22.2174  107.0415   38.8666 N   0  0  0  0  0  0
   21.7193  106.4502   33.8459 N   0  3  0  0  0  0
   21.7108  109.7182   40.2448 S   0  0  0  0  0  0
   26.7299  107.2321   39.8559 H   0  0  0  0  0  0
   19.4943  104.8223   41.8739 H   0  0  0  0  0  0
   26.4481  109.2889   41.1979 H   0  0  0  0  0  0
   19.1507  106.8668   43.2209 H   0  0  0  0  0  0
   24.8445  106.2152   38.7526 H   0  0  0  0  0  0
   20.8488  104.8761   39.8777 H   0  0  0  0  0  0
   24.2311  110.3417   41.3770 H   0  0  0  0  0  0
   20.1571  108.9937   42.5003 H   0  0  0  0  0  0
   23.3838  107.7455   33.4520 H   0  0  0  0  0  0
   21.9802  108.5423   34.2592 H   0  0  0  0  0  0
   21.8846  108.1245   32.5245 H   0  0  0  0  0  0
   23.0288  105.3246   32.5746 H   0  0  0  0  0  0
   21.5007  105.8867   31.7946 H   0  0  0  0  0  0
   21.4575  104.5222   32.9584 H   0  0  0  0  0  0
   20.6670  106.6908   36.3154 H   0  0  0  0  0  0
   22.0104  107.7638   36.3247 H   0  0  0  0  0  0
   21.5348  105.2527   37.9933 H   0  0  0  0  0  0
   23.1585  105.5999   37.6471 H   0  0  0  0  0  0
   23.3406  105.8618   35.0990 H   0  0  0  0  0  0
   21.8739  104.8614   35.2383 H   0  0  0  0  0  0
   20.7185  106.5535   33.9441 H   0  0  0  0  0  0
  1  3  2  0  0  0
  1  5  1  0  0  0
  1 21  1  0  0  0
  2  4  2  0  0  0
  2  6  1  0  0  0
  2 22  1  0  0  0
  3  7  1  0  0  0
  3 23  1  0  0  0
  4  8  1  0  0  0
  4 24  1  0  0  0
  5  9  2  0  0  0
  5 25  1  0  0  0
  6 10  2  0  0  0
  6 26  1  0  0  0
  7 11  2  0  0  0
  7 27  1  0  0  0
  8 12  2  0  0  0
  8 28  1  0  0  0
  9 11  1  0  0  0
  9 18  1  0  0  0
 10 12  1  0  0  0
 10 18  1  0  0  0
 11 20  1  0  0  0
 12 20  1  0  0  0
 13 19  1  0  0  0
 13 29  1  0  0  0
 13 30  1  0  0  0
 13 31  1  0  0  0
 14 19  1  0  0  0
 14 32  1  0  0  0
 14 33  1  0  0  0
 14 34  1  0  0  0
 15 16  1  0  0  0
 15 17  1  0  0  0
 15 35  1  0  0  0
 15 36  1  0  0  0
 16 18  1  0  0  0
 16 37  1  0  0  0
 16 38  1  0  0  0
 17 19  1  0  0  0
 17 39  1  0  0  0
 17 40  1  0  0  0
 19 41  1  0  0  0
M  CHG  1  19   1
M  END
> <s_m_entry_id>
7

> <s_m_entry_name>
PMZ.1

> <s_m_Source_Path>
/nfs/egallicchio/Dropbox/sims/SAMPL9

> <s_m_Source_File>
PMZ.mol2

> <i_m_Source_File_Index>
1

> <s_m_source_file>
ligprep_4.maegz

> <i_m_source_file_index>
3

> <i_lp_mmshare_version>
47013

> <s_epik_input>
W2NIXTFbY0hdW2NIXVtjSF1jKGMxMilTYzNjKFtjSF1bY0hdW2NIXVtjSF0zKU4yW0NIMl1bQ0gyXVtDSDJdTihbQ0gzXSlbQ0gzXQ==

> <s_epik_cmdline>
J2VwaWtfcHl0aG9uJywgJy1waHQnLCAnNC4wJywgJy1waCcsICc3LjQnLCAnLXRuJywgJzgnLCAnLW1hJywgJzIwMCcsICctaW1hZScsICc8aW5maWxlLm1hZT4nLCAnLW9tYWUnLCAnPG91dGZpbGUubWFlPic=

> <r_epik_Ionization_Penalty>
  0.0034

> <r_epik_Ionization_Penalty_Charging>
  0.0034

> <r_epik_Ionization_Penalty_Neutral>
  0.0000

> <r_epik_State_Penalty>
  0.0024

> <r_epik_Charging_Adjusted_Penalty>
0.0058317545360184

> <i_epik_Tot_Q>
1

> <i_epik_Tot_abs_Q>
1

> <i_f3d_flags>
0

> <s_lp_Force_Field>
OPLS3e

> <r_lp_Energy>
55.741628

> <b_lp_Chiralities_Consistent>
1

> <s_lp_Variant>
PMZ-1

> <s_m_job_name>
ligprep_4

$$$$
