PMZ1appR
                    3D
 Structure written by MMmdl.
 41 43  0  0  1  0            999 V2000
   28.5327  110.9599   39.6903 C   0  0  0  0  0  0
   29.9499  115.2056   44.1881 C   0  0  0  0  0  0
   27.2175  111.3685   39.5077 C   0  0  0  0  0  0
   28.6980  115.8073   44.2196 C   0  0  0  0  0  0
   29.5042  111.8846   40.0689 C   0  0  0  0  0  0
   30.4292  114.6559   43.0008 C   0  0  0  0  0  0
   26.8745  112.6977   39.7263 C   0  0  0  0  0  0
   27.9215  115.8395   43.0670 C   0  0  0  0  0  0
   29.1959  113.2453   40.2757 C   0  0  0  0  0  0
   29.6762  114.6891   41.8073 C   0  0  0  0  0  0
   27.8434  113.6243   40.1188 C   0  0  0  0  0  0
   28.3939  115.2786   41.8780 C   0  0  0  0  0  0
   32.8599  111.5841   36.6410 C   0  0  0  0  0  0
   35.1908  112.5164   36.9939 C   0  0  0  0  0  0
   32.0905  113.1034   39.2910 C   0  0  0  0  0  0
   31.5794  114.3295   40.0913 C   0  0  0  0  0  0
   33.2665  113.4631   38.3663 C   0  0  0  0  0  0
   30.1868  114.2132   40.5734 N   0  0  0  0  0  0
   33.8348  112.2103   37.6604 N   0  3  0  0  0  0
   27.3181  115.2549   40.4938 S   0  0  0  0  0  0
   28.8025  109.9256   39.5353 H   0  0  0  0  0  0
   30.5540  115.1694   45.0827 H   0  0  0  0  0  0
   26.4625  110.6546   39.2130 H   0  0  0  0  0  0
   28.3244  116.2365   45.1377 H   0  0  0  0  0  0
   30.5024  111.5015   40.1931 H   0  0  0  0  0  0
   31.4113  114.2129   43.0402 H   0  0  0  0  0  0
   25.8443  113.0031   39.6105 H   0  0  0  0  0  0
   26.9382  116.2860   43.1050 H   0  0  0  0  0  0
   32.6120  112.3483   35.9027 H   0  0  0  0  0  0
   31.9772  111.2434   37.1805 H   0  0  0  0  0  0
   33.3693  110.7359   36.1818 H   0  0  0  0  0  0
   35.0215  113.2695   36.2225 H   0  0  0  0  0  0
   35.5645  111.5832   36.5703 H   0  0  0  0  0  0
   35.8623  112.8811   37.7724 H   0  0  0  0  0  0
   32.4819  112.3630   39.9863 H   0  0  0  0  0  0
   31.2754  112.5902   38.7827 H   0  0  0  0  0  0
   32.2355  114.5226   40.9413 H   0  0  0  0  0  0
   31.6871  115.2459   39.5085 H   0  0  0  0  0  0
   32.9934  114.1673   37.5785 H   0  0  0  0  0  0
   34.0949  113.8731   38.9466 H   0  0  0  0  0  0
   34.0119  111.5191   38.3765 H   0  0  0  0  0  0
  1  3  2  0  0  0
  1  5  1  0  0  0
  1 21  1  0  0  0
  2  4  2  0  0  0
  2  6  1  0  0  0
  2 22  1  0  0  0
  3  7  1  0  0  0
  3 23  1  0  0  0
  4  8  1  0  0  0
  4 24  1  0  0  0
  5  9  2  0  0  0
  5 25  1  0  0  0
  6 10  2  0  0  0
  6 26  1  0  0  0
  7 11  2  0  0  0
  7 27  1  0  0  0
  8 12  2  0  0  0
  8 28  1  0  0  0
  9 11  1  0  0  0
  9 18  1  0  0  0
 10 12  1  0  0  0
 10 18  1  0  0  0
 11 20  1  0  0  0
 12 20  1  0  0  0
 13 19  1  0  0  0
 13 29  1  0  0  0
 13 30  1  0  0  0
 13 31  1  0  0  0
 14 19  1  0  0  0
 14 32  1  0  0  0
 14 33  1  0  0  0
 14 34  1  0  0  0
 15 16  1  0  0  0
 15 17  1  0  0  0
 15 35  1  0  0  0
 15 36  1  0  0  0
 16 18  1  0  0  0
 16 37  1  0  0  0
 16 38  1  0  0  0
 17 19  1  0  0  0
 17 39  1  0  0  0
 17 40  1  0  0  0
 19 41  1  0  0  0
M  CHG  1  19   1
M  END
> <i_m_stars>
0

> <s_m_entry_id>
201

> <s_m_entry_name>
Structure201

> <s_m_Source_Path>
/nfs/egallicchio/Dropbox/sims/SAMPL9

> <s_m_Source_File>
PMZ.mol2

> <i_m_Source_File_Index>
1

> <s_m_source_file>
ligprep_4.maegz

> <i_m_source_file_index>
3

> <i_lp_mmshare_version>
47013

> <s_epik_input>
W2NIXTFbY0hdW2NIXVtjSF1jKGMxMilTYzNjKFtjSF1bY0hdW2NIXVtjSF0zKU4yW0NIMl1bQ0gyXVtDSDJdTihbQ0gzXSlbQ0gzXQ==

> <s_epik_cmdline>
J2VwaWtfcHl0aG9uJywgJy1waHQnLCAnNC4wJywgJy1waCcsICc3LjQnLCAnLXRuJywgJzgnLCAnLW1hJywgJzIwMCcsICctaW1hZScsICc8aW5maWxlLm1hZT4nLCAnLW9tYWUnLCAnPG91dGZpbGUubWFlPic=

> <r_epik_Ionization_Penalty>
  0.0034

> <r_epik_Ionization_Penalty_Charging>
  0.0034

> <r_epik_Ionization_Penalty_Neutral>
  0.0000

> <r_epik_State_Penalty>
  0.0024

> <r_epik_Charging_Adjusted_Penalty>
0.0058317545360184

> <i_epik_Tot_Q>
1

> <i_epik_Tot_abs_Q>
1

> <i_f3d_flags>
0

> <s_lp_Force_Field>
OPLS3e

> <r_lp_Energy>
55.741628

> <b_lp_Chiralities_Consistent>
1

> <s_lp_Variant>
PMZ-1

> <s_m_job_name>
ligprep_4

> <s_m_subgroup_title>
ppR*

> <s_m_subgroupid>
ppR*

> <b_m_subgroup_collapsed>
0

$$$$
