PMZ1apsS
                    3D
 Schrodinger Suite 2019-4.
 41 43  0  0  1  0            999 V2000
   29.8304  115.5801   37.6423 C   0  0  0  0  0  0
   27.4841  110.4548   40.5208 C   0  0  0  0  0  0
   30.2523  114.8038   36.5702 C   0  0  0  0  0  0
   27.8992  109.6490   39.4678 C   0  0  0  0  0  0
   29.8142  115.0434   38.9284 C   0  0  0  0  0  0
   28.2265  111.5806   40.8714 C   0  0  0  0  0  0
   30.6779  113.4992   36.7921 C   0  0  0  0  0  0
   29.0670  109.9620   38.7816 C   0  0  0  0  0  0
   30.2163  113.7162   39.1860 C   0  0  0  0  0  0
   29.4056  111.9393   40.1833 C   0  0  0  0  0  0
   30.6755  112.9627   38.0819 C   0  0  0  0  0  0
   29.8202  111.0831   39.1385 C   0  0  0  0  0  0
   34.1312  115.1100   43.5567 C   0  0  0  0  0  0
   32.8051  115.8265   45.5951 C   0  0  0  0  0  0
   31.4461  113.8148   42.5392 C   0  0  0  0  0  0
   30.0987  113.8318   41.7716 C   0  0  0  0  0  0
   31.5519  114.9685   43.5517 C   0  0  0  0  0  0
   30.1216  113.1284   40.4716 N   0  0  0  0  0  0
   32.8508  114.8725   44.3850 N   0  3  0  0  0  0
   31.3387  111.3547   38.3052 S   0  0  0  0  0  0
   29.5115  116.5989   37.4780 H   0  0  0  0  0  0
   26.5825  110.2115   41.0635 H   0  0  0  0  0  0
   30.2647  115.2164   35.5721 H   0  0  0  0  0  0
   27.3249  108.7769   39.1918 H   0  0  0  0  0  0
   29.4765  115.6986   39.7127 H   0  0  0  0  0  0
   27.8458  112.1694   41.6904 H   0  0  0  0  0  0
   31.0320  112.9103   35.9581 H   0  0  0  0  0  0
   29.3979  109.3165   37.9806 H   0  0  0  0  0  0
   34.0541  116.0970   43.0979 H   0  0  0  0  0  0
   34.2023  114.3220   42.8082 H   0  0  0  0  0  0
   34.9777  115.0536   44.2422 H   0  0  0  0  0  0
   32.7440  116.8472   45.2138 H   0  0  0  0  0  0
   33.7171  115.6662   46.1718 H   0  0  0  0  0  0
   31.9262  115.5635   46.1852 H   0  0  0  0  0  0
   31.5077  112.9021   43.1293 H   0  0  0  0  0  0
   32.2933  113.7517   41.8577 H   0  0  0  0  0  0
   29.3081  113.4074   42.3921 H   0  0  0  0  0  0
   29.7480  114.8549   41.6253 H   0  0  0  0  0  0
   31.5557  115.9534   43.0814 H   0  0  0  0  0  0
   30.7359  114.9161   44.2745 H   0  0  0  0  0  0
   32.8982  113.9335   44.7562 H   0  0  0  0  0  0
  1  3  2  0  0  0
  1  5  1  0  0  0
  1 21  1  0  0  0
  2  4  2  0  0  0
  2  6  1  0  0  0
  2 22  1  0  0  0
  3  7  1  0  0  0
  3 23  1  0  0  0
  4  8  1  0  0  0
  4 24  1  0  0  0
  5  9  2  0  0  0
  5 25  1  0  0  0
  6 10  2  0  0  0
  6 26  1  0  0  0
  7 11  2  0  0  0
  7 27  1  0  0  0
  8 12  2  0  0  0
  8 28  1  0  0  0
  9 11  1  0  0  0
  9 18  1  0  0  0
 10 12  1  0  0  0
 10 18  1  0  0  0
 11 20  1  0  0  0
 12 20  1  0  0  0
 13 19  1  0  0  0
 13 29  1  0  0  0
 13 30  1  0  0  0
 13 31  1  0  0  0
 14 19  1  0  0  0
 14 32  1  0  0  0
 14 33  1  0  0  0
 14 34  1  0  0  0
 15 16  1  0  0  0
 15 17  1  0  0  0
 15 35  1  0  0  0
 15 36  1  0  0  0
 16 18  1  0  0  0
 16 37  1  0  0  0
 16 38  1  0  0  0
 17 19  1  0  0  0
 17 39  1  0  0  0
 17 40  1  0  0  0
 19 41  1  0  0  0
M  CHG  1  19   1
M  END
> <s_m_entry_id>
177

> <s_m_entry_name>
PMZ.1

> <s_m_Source_Path>
/nfs/egallicchio/Dropbox/sims/SAMPL9

> <s_m_Source_File>
PMZ.mol2

> <i_m_Source_File_Index>
1

> <s_m_source_file>
ligprep_4.maegz

> <i_m_source_file_index>
3

> <i_lp_mmshare_version>
47013

> <s_epik_input>
W2NIXTFbY0hdW2NIXVtjSF1jKGMxMilTYzNjKFtjSF1bY0hdW2NIXVtjSF0zKU4yW0NIMl1bQ0gyXVtDSDJdTihbQ0gzXSlbQ0gzXQ==

> <s_epik_cmdline>
J2VwaWtfcHl0aG9uJywgJy1waHQnLCAnNC4wJywgJy1waCcsICc3LjQnLCAnLXRuJywgJzgnLCAnLW1hJywgJzIwMCcsICctaW1hZScsICc8aW5maWxlLm1hZT4nLCAnLW9tYWUnLCAnPG91dGZpbGUubWFlPic=

> <r_epik_Ionization_Penalty>
  0.0034

> <r_epik_Ionization_Penalty_Charging>
  0.0034

> <r_epik_Ionization_Penalty_Neutral>
  0.0000

> <r_epik_State_Penalty>
  0.0024

> <r_epik_Charging_Adjusted_Penalty>
0.0058317545360184

> <i_epik_Tot_Q>
1

> <i_epik_Tot_abs_Q>
1

> <i_f3d_flags>
0

> <s_lp_Force_Field>
OPLS3e

> <r_lp_Energy>
55.741628

> <b_lp_Chiralities_Consistent>
1

> <s_lp_Variant>
PMZ-1

> <s_m_job_name>
ligprep_4

$$$$
