PMZ1apsR
                    3D
 Structure written by MMmdl.
 41 43  0  0  1  0            999 V2000
   32.8330  114.4242   44.7036 C   0  0  0  0  0  0
   29.6886  111.5029   40.1243 C   0  0  0  0  0  0
   33.9045  113.5407   44.7380 C   0  0  0  0  0  0
   30.6084  110.4769   39.9468 C   0  0  0  0  0  0
   32.1705  114.6707   43.5026 C   0  0  0  0  0  0
   30.1224  112.7678   40.5158 C   0  0  0  0  0  0
   34.2958  112.8896   43.5738 C   0  0  0  0  0  0
   31.9579  110.7154   40.1806 C   0  0  0  0  0  0
   32.5561  114.0460   42.2982 C   0  0  0  0  0  0
   31.4868  113.0505   40.7420 C   0  0  0  0  0  0
   33.6253  113.1245   42.3711 C   0  0  0  0  0  0
   32.3948  111.9792   40.5850 C   0  0  0  0  0  0
   26.9560  116.4832   40.8806 C   0  0  0  0  0  0
   27.4108  118.5594   39.4986 C   0  0  0  0  0  0
   29.9287  115.6686   40.2307 C   0  0  0  0  0  0
   31.4533  115.6349   40.5123 C   0  0  0  0  0  0
   29.3733  117.1034   40.2134 C   0  0  0  0  0  0
   31.9513  114.3529   41.0543 N   0  0  0  0  0  0
   27.8774  117.1263   39.8226 N   0  3  0  0  0  0
   34.0935  112.1793   40.9701 S   0  0  0  0  0  0
   32.5157  114.9226   45.6079 H   0  0  0  0  0  0
   28.6378  111.3212   39.9530 H   0  0  0  0  0  0
   34.4209  113.3486   45.6670 H   0  0  0  0  0  0
   30.2759  109.4958   39.6411 H   0  0  0  0  0  0
   31.3495  115.3654   43.5464 H   0  0  0  0  0  0
   29.3605  113.5226   40.6264 H   0  0  0  0  0  0
   35.1115  112.1820   43.6133 H   0  0  0  0  0  0
   32.6648  109.9062   40.0658 H   0  0  0  0  0  0
   27.1043  117.0162   41.8211 H   0  0  0  0  0  0
   27.2218  115.4306   40.9675 H   0  0  0  0  0  0
   25.9304  116.5827   40.5229 H   0  0  0  0  0  0
   27.5139  119.1574   40.4057 H   0  0  0  0  0  0
   26.3715  118.4985   39.1728 H   0  0  0  0  0  0
   28.0444  118.9351   38.6941 H   0  0  0  0  0  0
   29.7421  115.2714   39.2346 H   0  0  0  0  0  0
   29.3851  114.9970   40.8938 H   0  0  0  0  0  0
   32.0079  115.8769   39.6044 H   0  0  0  0  0  0
   31.7432  116.4487   41.1791 H   0  0  0  0  0  0
   29.4504  117.6053   41.1796 H   0  0  0  0  0  0
   29.8832  117.6995   39.4546 H   0  0  0  0  0  0
   27.7836  116.5900   38.9709 H   0  0  0  0  0  0
  1  3  2  0  0  0
  1  5  1  0  0  0
  1 21  1  0  0  0
  2  4  2  0  0  0
  2  6  1  0  0  0
  2 22  1  0  0  0
  3  7  1  0  0  0
  3 23  1  0  0  0
  4  8  1  0  0  0
  4 24  1  0  0  0
  5  9  2  0  0  0
  5 25  1  0  0  0
  6 10  2  0  0  0
  6 26  1  0  0  0
  7 11  2  0  0  0
  7 27  1  0  0  0
  8 12  2  0  0  0
  8 28  1  0  0  0
  9 11  1  0  0  0
  9 18  1  0  0  0
 10 12  1  0  0  0
 10 18  1  0  0  0
 11 20  1  0  0  0
 12 20  1  0  0  0
 13 19  1  0  0  0
 13 29  1  0  0  0
 13 30  1  0  0  0
 13 31  1  0  0  0
 14 19  1  0  0  0
 14 32  1  0  0  0
 14 33  1  0  0  0
 14 34  1  0  0  0
 15 16  1  0  0  0
 15 17  1  0  0  0
 15 35  1  0  0  0
 15 36  1  0  0  0
 16 18  1  0  0  0
 16 37  1  0  0  0
 16 38  1  0  0  0
 17 19  1  0  0  0
 17 39  1  0  0  0
 17 40  1  0  0  0
 19 41  1  0  0  0
M  CHG  1  19   1
M  END
> <i_m_stars>
0

> <s_m_entry_id>
215

> <s_m_entry_name>
Structure215

> <s_m_Source_Path>
/nfs/egallicchio/Dropbox/sims/SAMPL9

> <s_m_Source_File>
PMZ.mol2

> <i_m_Source_File_Index>
1

> <s_m_source_file>
ligprep_4.maegz

> <i_m_source_file_index>
3

> <i_lp_mmshare_version>
47013

> <s_epik_input>
W2NIXTFbY0hdW2NIXVtjSF1jKGMxMilTYzNjKFtjSF1bY0hdW2NIXVtjSF0zKU4yW0NIMl1bQ0gyXVtDSDJdTihbQ0gzXSlbQ0gzXQ==

> <s_epik_cmdline>
J2VwaWtfcHl0aG9uJywgJy1waHQnLCAnNC4wJywgJy1waCcsICc3LjQnLCAnLXRuJywgJzgnLCAnLW1hJywgJzIwMCcsICctaW1hZScsICc8aW5maWxlLm1hZT4nLCAnLW9tYWUnLCAnPG91dGZpbGUubWFlPic=

> <r_epik_Ionization_Penalty>
  0.0034

> <r_epik_Ionization_Penalty_Charging>
  0.0034

> <r_epik_Ionization_Penalty_Neutral>
  0.0000

> <r_epik_State_Penalty>
  0.0024

> <r_epik_Charging_Adjusted_Penalty>
0.0058317545360184

> <i_epik_Tot_Q>
1

> <i_epik_Tot_abs_Q>
1

> <i_f3d_flags>
0

> <s_lp_Force_Field>
OPLS3e

> <r_lp_Energy>
55.741628

> <b_lp_Chiralities_Consistent>
1

> <s_lp_Variant>
PMZ-1

> <s_m_job_name>
ligprep_4

> <s_m_subgroup_title>
psR*

> <s_m_subgroupid>
psR*

> <b_m_subgroup_collapsed>
0

$$$$
