TFP1bspS
                    3D
 Structure written by MMmdl.
 50 53  0  0  1  0            999 V2000
   24.1864  112.5415   46.9346 C   0  0  0  0  0  0
   23.7930  111.9956   48.1688 C   0  0  0  0  0  0
   25.5509  112.6002   46.5917 C   0  0  0  0  0  0
   24.7674  111.5116   49.0578 C   0  0  0  0  0  0
   29.7450  112.0646   50.4259 C   0  0  0  0  0  0
   30.9092  112.7938   50.1257 C   0  0  0  0  0  0
   30.1103  113.1032   47.8453 C   0  0  0  0  0  0
   26.5487  112.1164   47.4742 C   0  0  0  0  0  0
   28.9326  112.3702   48.1248 C   0  0  0  0  0  0
   26.1343  111.5767   48.7208 C   0  0  0  0  0  0
   28.7604  111.8606   49.4386 C   0  0  0  0  0  0
   31.0937  113.3222   48.8314 C   0  0  0  0  0  0
   26.4484  108.3973   44.2546 C   0  0  0  0  0  0
   27.3141  109.2685   42.1443 C   0  0  0  0  0  0
   25.0260  108.4404   43.6693 C   0  0  0  0  0  0
   25.8737  109.2926   41.5903 C   0  0  0  0  0  0
   28.6288  109.9608   45.7794 C   0  0  0  0  0  0
   28.2086  111.5047   45.8354 C   0  0  0  0  0  0
   28.6305  109.5009   44.3055 C   0  0  0  0  0  0
   27.9199  112.1516   47.1513 N   0  0  0  0  0  0
   27.2983  109.4466   43.6252 N   0  3  0  0  0  0
   25.0702  108.2510   42.2259 N   0  0  0  0  0  0
   31.9716  115.3193   48.0122 F   0  0  0  0  0  0
   32.9994  113.4779   47.5181 F   0  0  0  0  0  0
   33.1412  114.2960   49.5199 F   0  0  0  0  0  0
   27.3100  110.9631   49.8863 S   0  0  0  0  0  0
   32.3341  114.1245   48.4743 C   0  0  0  0  0  0
   23.4388  112.9355   46.2603 H   0  0  0  0  0  0
   22.7471  111.9658   48.4403 H   0  0  0  0  0  0
   25.8097  113.0664   45.6552 H   0  0  0  0  0  0
   24.4658  111.1083   50.0138 H   0  0  0  0  0  0
   29.5984  111.6793   51.4257 H   0  0  0  0  0  0
   31.6523  112.9613   50.8924 H   0  0  0  0  0  0
   30.2715  113.5560   46.8806 H   0  0  0  0  0  0
   26.4061  108.5637   45.3315 H   0  0  0  0  0  0
   26.8989  107.4135   44.1035 H   0  0  0  0  0  0
   27.8162  108.3398   41.8634 H   0  0  0  0  0  0
   27.8490  110.0731   41.6396 H   0  0  0  0  0  0
   24.4204  107.6510   44.1175 H   0  0  0  0  0  0
   24.5383  109.3868   43.9105 H   0  0  0  0  0  0
   25.4106  110.2671   41.7587 H   0  0  0  0  0  0
   25.8723  109.1368   40.5104 H   0  0  0  0  0  0
   29.5836  109.7317   46.2834 H   0  0  0  0  0  0
   27.9487  109.2212   46.2417 H   0  0  0  0  0  0
   29.0122  112.0626   45.3888 H   0  0  0  0  0  0
   27.3382  111.6360   45.1985 H   0  0  0  0  0  0
   29.2731  110.1791   43.7364 H   0  0  0  0  0  0
   29.1074  108.5265   44.2766 H   0  0  0  0  0  0
   25.3342  107.3102   41.9457 H   0  0  0  0  0  0
   26.8475  110.3287   43.8019 H   0  0  0  0  0  0
  1  2  2  0  0  0
  1  3  1  0  0  0
  1 28  1  0  0  0
  2  4  1  0  0  0
  2 29  1  0  0  0
  3  8  2  0  0  0
  3 30  1  0  0  0
  4 10  2  0  0  0
  4 31  1  0  0  0
  5  6  2  0  0  0
  5 11  1  0  0  0
  5 32  1  0  0  0
  6 12  1  0  0  0
  6 33  1  0  0  0
  7  9  1  0  0  0
  7 12  2  0  0  0
  7 34  1  0  0  0
  8 10  1  0  0  0
  8 20  1  0  0  0
  9 11  2  0  0  0
  9 20  1  0  0  0
 10 26  1  0  0  0
 11 26  1  0  0  0
 12 27  1  0  0  0
 13 15  1  0  0  0
 13 21  1  0  0  0
 13 35  1  0  0  0
 13 36  1  0  0  0
 14 16  1  0  0  0
 14 21  1  0  0  0
 14 37  1  0  0  0
 14 38  1  0  0  0
 15 22  1  0  0  0
 15 39  1  0  0  0
 15 40  1  0  0  0
 16 22  1  0  0  0
 16 41  1  0  0  0
 16 42  1  0  0  0
 17 18  1  0  0  0
 17 19  1  0  0  0
 17 43  1  0  0  0
 17 44  1  0  0  0
 18 20  1  0  0  0
 18 45  1  0  0  0
 18 46  1  0  0  0
 19 21  1  0  0  0
 19 47  1  0  0  0
 19 48  1  0  0  0
 21 50  1  0  0  0
 22 49  1  0  0  0
 23 27  1  0  0  0
 24 27  1  0  0  0
 25 27  1  0  0  0
M  CHG  1  21   1
M  END
> <s_m_entry_id>
436

> <s_m_entry_name>
TFP1bspS.1

> <s_m_Source_Path>
/home/emilio/Dropbox/SAMPL9-eglab/mCD/ligsdfs

> <s_m_Source_File>
TFP1bspS.sdf

> <i_m_Source_File_Index>
1

> <i_lp_mmshare_version>
47013

> <s_epik_input>
W2NIXTFbY0hdW2NIXVtjSF1jKGMxMilTYzNjKFtjSF1jKEMoRikoRilGKVtjSF1bY0hdMylOMltDSDJdW0NIMl1bQ0gyXU40W0NIMl1bQ0gyXVtOSF1bQ0gyXVtDSDJdNA==

> <s_epik_cmdline>
J2VwaWtfcHl0aG9uJywgJy1waHQnLCAnNC4wJywgJy1waCcsICc3LjQnLCAnLXRuJywgJzgnLCAnLW1hJywgJzIwMCcsICctaW1hZScsICc8aW5maWxlLm1hZT4nLCAnLW9tYWUnLCAnPG91dGZpbGUubWFlPic=

> <r_epik_Ionization_Penalty>
  0.1004

> <r_epik_Ionization_Penalty_Charging>
  0.0867

> <r_epik_Ionization_Penalty_Neutral>
  0.0137

> <r_epik_State_Penalty>
  1.6660

> <r_epik_Charging_Adjusted_Penalty>
1.75263574697331

> <i_epik_Tot_Q>
1

> <i_epik_Tot_abs_Q>
1

> <s_lp_Force_Field>
OPLS3e

> <r_lp_Energy>
57.544639

> <b_lp_Chiralities_Consistent>
1

> <s_lp_Variant>
TFP-2

> <s_m_job_name>
ligprep_4

> <chiral flag>
1

> <version>
0

> <i_f3d_flags>
0

> <s_m_subgroup_title>
mCDq->spS

> <s_m_subgroupid>
mCDq->spS1_copy1

> <b_m_subgroup_collapsed>
0

$$$$
