CPZ1aspS
                    3D
 Structure written by MMmdl.
 41 43  0  0  1  0            999 V2000
   24.2073  112.6012   46.9396 C   0  0  0  0  0  0
   23.8030  112.0351   48.1626 C   0  0  0  0  0  0
   25.5734  112.6502   46.6019 C   0  0  0  0  0  0
   24.7690  111.5252   49.0493 C   0  0  0  0  0  0
   29.7277  112.0357   50.4387 C   0  0  0  0  0  0
   30.9226  112.7758   50.1142 C   0  0  0  0  0  0
   30.0955  113.1383   47.8499 C   0  0  0  0  0  0
   26.5564  112.1357   47.4804 C   0  0  0  0  0  0
   28.9208  112.4000   48.1389 C   0  0  0  0  0  0
   26.1369  111.5879   48.7192 C   0  0  0  0  0  0
   28.7549  111.8756   49.4409 C   0  0  0  0  0  0
   31.0886  113.3218   48.8244 C   0  0  0  0  0  0
   25.7666  109.4036   43.7140 C   0  0  0  0  0  0
   25.7285  108.4163   45.9626 C   0  0  0  0  0  0
   28.6688  109.8880   46.0757 C   0  0  0  0  0  0
   28.2523  111.3824   46.0199 C   0  0  0  0  0  0
   27.8785  109.1184   45.0006 C   0  0  0  0  0  0
   27.9289  112.1920   47.1576 N   0  0  0  0  0  0
   26.4136  109.3638   45.0485 N   0  3  0  0  0  0
   27.3099  110.9639   49.8838 S   0  0  0  0  0  0
   32.5217  114.1965   48.4357 Cl  0  0  0  0  0  0
   23.4675  113.0054   46.2622 H   0  0  0  0  0  0
   22.7557  111.9994   48.4265 H   0  0  0  0  0  0
   25.8502  113.1114   45.6669 H   0  0  0  0  0  0
   24.4627  111.0952   49.9924 H   0  0  0  0  0  0
   29.6176  111.6383   51.4097 H   0  0  0  0  0  0
   31.6863  112.9136   50.8667 H   0  0  0  0  0  0
   30.2445  113.5759   46.8758 H   0  0  0  0  0  0
   25.9009  108.4640   43.1744 H   0  0  0  0  0  0
   26.1647  110.2097   43.0959 H   0  0  0  0  0  0
   24.6949  109.5864   43.8103 H   0  0  0  0  0  0
   25.7919  107.3911   45.5921 H   0  0  0  0  0  0
   24.6731  108.6723   46.0685 H   0  0  0  0  0  0
   26.1703  108.4406   46.9603 H   0  0  0  0  0  0
   29.7424  109.8027   45.9200 H   0  0  0  0  0  0
   28.4790  109.3981   47.0239 H   0  0  0  0  0  0
   28.7760  111.9153   45.2509 H   0  0  0  0  0  0
   27.2297  111.4756   45.9297 H   0  0  0  0  0  0
   28.2662  109.3642   44.0082 H   0  0  0  0  0  0
   28.0585  108.0491   45.1347 H   0  0  0  0  0  0
   26.2959  110.2818   45.4569 H   0  0  0  0  0  0
  1  2  2  0  0  0
  1  3  1  0  0  0
  1 22  1  0  0  0
  2  4  1  0  0  0
  2 23  1  0  0  0
  3  8  2  0  0  0
  3 24  1  0  0  0
  4 10  2  0  0  0
  4 25  1  0  0  0
  5  6  2  0  0  0
  5 11  1  0  0  0
  5 26  1  0  0  0
  6 12  1  0  0  0
  6 27  1  0  0  0
  7  9  1  0  0  0
  7 12  2  0  0  0
  7 28  1  0  0  0
  8 10  1  0  0  0
  8 18  1  0  0  0
  9 11  2  0  0  0
  9 18  1  0  0  0
 10 20  1  0  0  0
 11 20  1  0  0  0
 12 21  1  0  0  0
 13 19  1  0  0  0
 13 29  1  0  0  0
 13 30  1  0  0  0
 13 31  1  0  0  0
 14 19  1  0  0  0
 14 32  1  0  0  0
 14 33  1  0  0  0
 14 34  1  0  0  0
 15 16  1  0  0  0
 15 17  1  0  0  0
 15 35  1  0  0  0
 15 36  1  0  0  0
 16 18  1  0  0  0
 16 37  1  0  0  0
 16 38  1  0  0  0
 17 19  1  0  0  0
 17 39  1  0  0  0
 17 40  1  0  0  0
 19 41  1  0  0  0
M  CHG  1  19   1
M  END
> <s_m_entry_id>
425

> <s_m_entry_name>
CPZ1aspS.1

> <s_m_Source_Path>
/home/emilio/Dropbox/SAMPL9-eglab/mCD/ligsdfs

> <s_m_Source_File>
CPZ1aspS.sdf

> <i_m_Source_File_Index>
1

> <i_lp_mmshare_version>
47013

> <s_epik_input>
W2NIXTFbY0hdW2NIXVtjSF1jKGMxMilTYzNjKFtjSF1jKENsKVtjSF1bY0hdMylOMltDSDJdW0NIMl1bQ0gyXU4oW0NIM10pW0NIM10=

> <s_epik_cmdline>
J2VwaWtfcHl0aG9uJywgJy1waHQnLCAnNC4wJywgJy1waCcsICc3LjQnLCAnLXRuJywgJzgnLCAnLW1hJywgJzIwMCcsICctaW1hZScsICc8aW5maWxlLm1hZT4nLCAnLW9tYWUnLCAnPG91dGZpbGUubWFlPic=

> <r_epik_Ionization_Penalty>
  0.0036

> <r_epik_Ionization_Penalty_Charging>
  0.0036

> <r_epik_Ionization_Penalty_Neutral>
  0.0000

> <r_epik_State_Penalty>
  0.0025

> <r_epik_Charging_Adjusted_Penalty>
0.00607902823301679

> <i_epik_Tot_Q>
1

> <i_epik_Tot_abs_Q>
1

> <s_lp_Force_Field>
OPLS3e

> <r_lp_Energy>
54.329832

> <b_lp_Chiralities_Consistent>
1

> <s_lp_Variant>
CPZ-1

> <s_m_job_name>
ligprep_4

> <chiral flag>
1

> <version>
0

> <i_f3d_flags>
0

> <s_m_subgroup_title>
mCDq->spS

> <s_m_subgroupid>
mCDq->spS1_copy1

> <b_m_subgroup_collapsed>
0

$$$$
