TDZNS1aspS
                    3D
 Structure written by MMmdl.
 52 55  0  0  1  0            999 V2000
   24.2465  112.7224   46.9583 C   0  0  0  0  0  0
   23.8322  112.1919   48.1958 C   0  0  0  0  0  0
   25.6093  112.6965   46.6022 C   0  0  0  0  0  0
   24.7791  111.6338   49.0745 C   0  0  0  0  0  0
   29.7603  112.0479   50.4220 C   0  0  0  0  0  0
   30.9206  112.7817   50.1139 C   0  0  0  0  0  0
   30.1006  113.1095   47.8356 C   0  0  0  0  0  0
   26.5694  112.1582   47.4853 C   0  0  0  0  0  0
   28.9283  112.3862   48.1405 C   0  0  0  0  0  0
   26.1431  111.6302   48.7301 C   0  0  0  0  0  0
   28.7611  111.8666   49.4476 C   0  0  0  0  0  0
   31.0837  113.3196   48.8232 C   0  0  0  0  0  0
   28.4359  110.8974   43.0144 C   0  0  0  0  0  0
   26.9159  110.9598   42.8030 C   0  0  0  0  0  0
   28.8545  109.5372   43.5990 C   0  0  0  0  0  0
   26.1582  110.5821   44.0869 C   0  0  0  0  0  0
   28.0586  109.1676   44.8730 C   0  0  1  0  0  0
   25.7117  108.6904   45.6303 C   0  0  0  0  0  0
   33.0360  115.1121   49.9459 C   0  0  0  0  0  0
   28.4755  109.9963   46.1177 C   0  0  0  0  0  0
   28.3514  111.5235   45.9273 C   0  0  0  0  0  0
   27.9357  112.1934   47.1640 N   0  0  0  0  0  0
   26.5945  109.2446   44.5725 N   0  3  1  0  0  0
   27.3080  110.9639   49.8807 S   0  0  0  0  0  0
   32.5181  114.2631   48.4268 S   0  0  0  0  0  0
   23.5209  113.1602   46.2886 H   0  0  0  0  0  0
   22.7899  112.2234   48.4795 H   0  0  0  0  0  0
   25.9135  113.1319   45.6634 H   0  0  0  0  0  0
   24.4658  111.2268   50.0252 H   0  0  0  0  0  0
   29.6289  111.6427   51.4147 H   0  0  0  0  0  0
   31.6738  112.9306   50.8731 H   0  0  0  0  0  0
   30.2303  113.5417   46.8552 H   0  0  0  0  0  0
   28.9469  111.0687   42.0645 H   0  0  0  0  0  0
   28.7504  111.7077   43.6717 H   0  0  0  0  0  0
   26.6286  111.9629   42.4795 H   0  0  0  0  0  0
   26.6274  110.2906   41.9889 H   0  0  0  0  0  0
   28.6986  108.7667   42.8413 H   0  0  0  0  0  0
   29.9275  109.5364   43.7965 H   0  0  0  0  0  0
   26.3149  111.3383   44.8591 H   0  0  0  0  0  0
   25.0870  110.5687   43.8774 H   0  0  0  0  0  0
   28.2727  108.1180   45.0966 H   0  0  0  0  0  0
   25.6377  109.3536   46.4946 H   0  0  0  0  0  0
   26.0671  107.7177   45.9735 H   0  0  0  0  0  0
   24.7006  108.5500   45.2416 H   0  0  0  0  0  0
   33.7942  115.8586   49.7114 H   0  0  0  0  0  0
   33.4608  114.4131   50.6648 H   0  0  0  0  0  0
   32.1905  115.6186   50.4104 H   0  0  0  0  0  0
   27.9026  109.6967   46.9943 H   0  0  0  0  0  0
   29.5140  109.7854   46.3625 H   0  0  0  0  0  0
   29.3015  111.9445   45.5961 H   0  0  0  0  0  0
   27.6465  111.7399   45.1252 H   0  0  0  0  0  0
   26.4679  108.6259   43.7840 H   0  0  0  0  0  0
  1  2  2  0  0  0
  1  3  1  0  0  0
  1 26  1  0  0  0
  2  4  1  0  0  0
  2 27  1  0  0  0
  3  8  2  0  0  0
  3 28  1  0  0  0
  4 10  2  0  0  0
  4 29  1  0  0  0
  5  6  2  0  0  0
  5 11  1  0  0  0
  5 30  1  0  0  0
  6 12  1  0  0  0
  6 31  1  0  0  0
  7  9  1  0  0  0
  7 12  2  0  0  0
  7 32  1  0  0  0
  8 10  1  0  0  0
  8 22  1  0  0  0
  9 11  2  0  0  0
  9 22  1  0  0  0
 10 24  1  0  0  0
 11 24  1  0  0  0
 12 25  1  0  0  0
 13 14  1  0  0  0
 13 15  1  0  0  0
 13 33  1  0  0  0
 13 34  1  0  0  0
 14 16  1  0  0  0
 14 35  1  0  0  0
 14 36  1  0  0  0
 15 17  1  0  0  0
 15 37  1  0  0  0
 15 38  1  0  0  0
 16 23  1  0  0  0
 16 39  1  0  0  0
 16 40  1  0  0  0
 17 20  1  0  0  0
 17 23  1  0  0  0
 17 41  1  0  0  0
 18 23  1  0  0  0
 18 42  1  0  0  0
 18 43  1  0  0  0
 18 44  1  0  0  0
 19 25  1  0  0  0
 19 45  1  0  0  0
 19 46  1  0  0  0
 19 47  1  0  0  0
 20 21  1  0  0  0
 20 48  1  0  0  0
 20 49  1  0  0  0
 21 22  1  0  0  0
 21 50  1  0  0  0
 21 51  1  0  0  0
 23 52  1  0  0  0
M  CHG  1  23   1
M  END
> <s_m_entry_id>
433

> <s_m_entry_name>
TDZNS1aspS.1

> <s_m_Source_Path>
/home/emilio/Dropbox/SAMPL9-eglab/mCD/ligsdfs

> <s_m_Source_File>
TDZNS1aspS.sdf

> <i_m_Source_File_Index>
1

> <i_lp_mmshare_version>
47013

> <s_epik_input>
W2NIXTFbY0hdW2NIXVtjSF1jKGMxMilTYzNjKFtjSF1jKFtjSF1bY0hdMylTW0NIM10pTjJbQ0gyXVtDSDJdW0NAQEhdNFtDSDJdW0NIMl1bQ0gyXVtDSDJdTjRbQ0gzXQ==

> <s_epik_cmdline>
J2VwaWtfcHl0aG9uJywgJy1waHQnLCAnNC4wJywgJy1waCcsICc3LjQnLCAnLXRuJywgJzgnLCAnLW1hJywgJzIwMCcsICctaW1hZScsICc8aW5maWxlLm1hZT4nLCAnLW9tYWUnLCAnPG91dGZpbGUubWFlPic=

> <r_epik_Ionization_Penalty>
  0.0017

> <r_epik_Ionization_Penalty_Charging>
  0.0017

> <r_epik_Ionization_Penalty_Neutral>
  0.0000

> <r_epik_State_Penalty>
  0.0011

> <r_epik_Charging_Adjusted_Penalty>
0.00279136850725907

> <i_epik_Tot_Q>
1

> <i_epik_Tot_abs_Q>
1

> <s_lp_Force_Field>
OPLS3e

> <r_lp_Energy>
57.252618

> <b_lp_Chiralities_Consistent>
1

> <s_lp_Variant>
TDZ-NS-1

> <s_m_job_name>
ligprep_4

> <chiral flag>
1

> <version>
0

> <i_f3d_flags>
0

> <s_m_subgroup_title>
mCDq->spS

> <s_m_subgroupid>
mCDq->spS1_copy1

> <b_m_subgroup_collapsed>
0

$$$$
