TDZNR1aspS
                    3D
 Structure written by MMmdl.
 52 55  0  0  1  0            999 V2000
   24.2863  113.0104   47.0998 C   0  0  0  0  0  0
   23.8578  112.4236   48.3077 C   0  0  0  0  0  0
   25.6410  112.9425   46.7207 C   0  0  0  0  0  0
   24.7910  111.7795   49.1445 C   0  0  0  0  0  0
   29.7653  112.0396   50.4195 C   0  0  0  0  0  0
   30.9145  112.7934   50.1159 C   0  0  0  0  0  0
   30.1308  113.0687   47.8189 C   0  0  0  0  0  0
   26.5781  112.2801   47.5442 C   0  0  0  0  0  0
   28.9581  112.3419   48.1247 C   0  0  0  0  0  0
   26.1471  111.7243   48.7735 C   0  0  0  0  0  0
   28.7810  111.8349   49.4353 C   0  0  0  0  0  0
   31.0879  113.3221   48.8223 C   0  0  0  0  0  0
   27.8022  110.0766   41.8266 C   0  0  0  0  0  0
   26.4071  109.4498   41.7625 C   0  0  0  0  0  0
   28.0787  110.6099   43.2393 C   0  0  0  0  0  0
   26.2591  108.3626   42.8351 C   0  0  0  0  0  0
   27.8918  109.5185   44.3228 C   0  0  1  0  0  0
   26.2100  107.8840   45.2384 C   0  0  0  0  0  0
   32.6437  115.4750   49.8549 C   0  0  0  0  0  0
   28.1131  110.0944   45.7447 C   0  0  0  0  0  0
   28.3208  111.6286   45.8665 C   0  0  0  0  0  0
   27.9332  112.1895   47.1720 N   0  0  0  0  0  0
   26.5273  108.8995   44.1975 N   0  3  2  0  0  0
   27.3063  110.9653   49.8736 S   0  0  0  0  0  0
   32.4822  114.3338   48.4502 S   0  0  0  0  0  0
   23.5730  113.5194   46.4675 H   0  0  0  0  0  0
   22.8201  112.4788   48.6019 H   0  0  0  0  0  0
   25.9690  113.4181   45.8073 H   0  0  0  0  0  0
   24.4683  111.3385   50.0764 H   0  0  0  0  0  0
   29.6233  111.6441   51.4153 H   0  0  0  0  0  0
   31.6535  112.9686   50.8834 H   0  0  0  0  0  0
   30.2704  113.4941   46.8374 H   0  0  0  0  0  0
   28.5550  109.3350   41.5551 H   0  0  0  0  0  0
   27.8888  110.8812   41.0944 H   0  0  0  0  0  0
   25.6434  110.2186   41.8946 H   0  0  0  0  0  0
   26.2369  109.0232   40.7731 H   0  0  0  0  0  0
   29.0965  110.9988   43.2629 H   0  0  0  0  0  0
   27.4267  111.4611   43.4415 H   0  0  0  0  0  0
   25.2472  107.9557   42.7868 H   0  0  0  0  0  0
   26.9357  107.5333   42.6266 H   0  0  0  0  0  0
   28.6353  108.7354   44.1464 H   0  0  0  0  0  0
   26.9764  107.1076   45.2819 H   0  0  0  0  0  0
   25.2545  107.3978   45.0404 H   0  0  0  0  0  0
   26.1183  108.3328   46.2281 H   0  0  0  0  0  0
   33.3837  116.2458   49.6341 H   0  0  0  0  0  0
   32.9619  114.9458   50.7534 H   0  0  0  0  0  0
   31.6908  115.9658   50.0596 H   0  0  0  0  0  0
   27.2635  109.7971   46.3601 H   0  0  0  0  0  0
   29.0031  109.6282   46.1685 H   0  0  0  0  0  0
   29.3811  111.8389   45.7052 H   0  0  0  0  0  0
   27.7825  112.1616   45.0817 H   0  0  0  0  0  0
   25.8675  109.6525   44.3301 H   0  0  0  0  0  0
  1  2  2  0  0  0
  1  3  1  0  0  0
  1 26  1  0  0  0
  2  4  1  0  0  0
  2 27  1  0  0  0
  3  8  2  0  0  0
  3 28  1  0  0  0
  4 10  2  0  0  0
  4 29  1  0  0  0
  5  6  2  0  0  0
  5 11  1  0  0  0
  5 30  1  0  0  0
  6 12  1  0  0  0
  6 31  1  0  0  0
  7  9  1  0  0  0
  7 12  2  0  0  0
  7 32  1  0  0  0
  8 10  1  0  0  0
  8 22  1  0  0  0
  9 11  2  0  0  0
  9 22  1  0  0  0
 10 24  1  0  0  0
 11 24  1  0  0  0
 12 25  1  0  0  0
 13 14  1  0  0  0
 13 15  1  0  0  0
 13 33  1  0  0  0
 13 34  1  0  0  0
 14 16  1  0  0  0
 14 35  1  0  0  0
 14 36  1  0  0  0
 15 17  1  0  0  0
 15 37  1  0  0  0
 15 38  1  0  0  0
 16 23  1  0  0  0
 16 39  1  0  0  0
 16 40  1  0  0  0
 17 20  1  0  0  0
 17 23  1  0  0  0
 17 41  1  0  0  0
 18 23  1  0  0  0
 18 42  1  0  0  0
 18 43  1  0  0  0
 18 44  1  0  0  0
 19 25  1  0  0  0
 19 45  1  0  0  0
 19 46  1  0  0  0
 19 47  1  0  0  0
 20 21  1  0  0  0
 20 48  1  0  0  0
 20 49  1  0  0  0
 21 22  1  0  0  0
 21 50  1  0  0  0
 21 51  1  0  0  0
 23 52  1  0  0  0
M  CHG  1  23   1
M  END
> <s_m_entry_id>
431

> <s_m_entry_name>
TDZNR1aspS.1

> <s_m_Source_Path>
/home/emilio/Dropbox/SAMPL9-eglab/mCD/ligsdfs

> <s_m_Source_File>
TDZNR1aspS.sdf

> <i_m_Source_File_Index>
1

> <i_lp_mmshare_version>
47013

> <s_epik_input>
W2NIXTFbY0hdW2NIXVtjSF1jKGMxMilTYzNjKFtjSF1jKFtjSF1bY0hdMylTW0NIM10pTjJbQ0gyXVtDSDJdW0NAQEhdNFtDSDJdW0NIMl1bQ0gyXVtDSDJdTjRbQ0gzXQ==

> <s_epik_cmdline>
J2VwaWtfcHl0aG9uJywgJy1waHQnLCAnNC4wJywgJy1waCcsICc3LjQnLCAnLXRuJywgJzgnLCAnLW1hJywgJzIwMCcsICctaW1hZScsICc8aW5maWxlLm1hZT4nLCAnLW9tYWUnLCAnPG91dGZpbGUubWFlPic=

> <r_epik_Ionization_Penalty>
  0.0017

> <r_epik_Ionization_Penalty_Charging>
  0.0017

> <r_epik_Ionization_Penalty_Neutral>
  0.0000

> <r_epik_State_Penalty>
  0.0011

> <r_epik_Charging_Adjusted_Penalty>
0.00279136850725907

> <i_epik_Tot_Q>
1

> <i_epik_Tot_abs_Q>
1

> <s_lp_Force_Field>
OPLS3e

> <r_lp_Energy>
55.960333

> <b_lp_Chiralities_Consistent>
1

> <s_lp_Variant>
TDZ-NR-1

> <s_m_job_name>
ligprep_4

> <chiral flag>
1

> <version>
0

> <i_f3d_flags>
0

> <s_m_subgroup_title>
mCDq->spS

> <s_m_subgroupid>
mCDq->spS1_copy1

> <b_m_subgroup_collapsed>
0

$$$$
