PMT1apsR
                    3D
 Structure written by MMmdl.
 41 43  0  0  1  0            999 V2000
   27.2031  115.7208   37.2737 C   0  0  0  0  0  0
   26.2759  111.2366   42.5030 C   0  0  0  0  0  0
   25.9613  116.3665   37.4507 C   0  0  0  0  0  0
   25.0216  111.7457   42.8996 C   0  0  0  0  0  0
   27.7793  114.9907   38.3358 C   0  0  0  0  0  0
   27.1687  112.0417   41.7648 C   0  0  0  0  0  0
   25.3048  116.2998   38.6924 C   0  0  0  0  0  0
   24.6566  113.0581   42.5509 C   0  0  0  0  0  0
   27.1157  114.8934   39.5771 C   0  0  0  0  0  0
   26.8118  113.3612   41.4162 C   0  0  0  0  0  0
   25.8738  115.5550   39.7445 C   0  0  0  0  0  0
   25.5408  113.8551   41.8001 C   0  0  0  0  0  0
   27.0338  116.6777   42.1017 C   0  0  0  0  0  0
   30.7891  116.3872   42.9802 C   0  0  0  0  0  0
   29.1253  118.0674   43.5637 C   0  0  0  0  0  0
   28.7425  114.9350   41.2801 C   0  0  0  0  0  0
   28.3642  115.9447   42.4169 C   0  0  1  0  0  0
   27.6819  114.1443   40.6326 N   0  0  0  0  0  0
   29.4593  116.9600   42.6182 N   0  3  0  0  0  0
   25.0127  115.4537   41.2817 S   0  0  0  0  0  0
   27.7110  115.7887   36.3192 H   0  0  0  0  0  0
   26.5365  110.2123   42.7421 H   0  0  0  0  0  0
   25.5157  116.9198   36.6398 H   0  0  0  0  0  0
   24.3276  111.1223   43.4480 H   0  0  0  0  0  0
   28.7240  114.4901   38.1795 H   0  0  0  0  0  0
   28.1059  111.6230   41.4320 H   0  0  0  0  0  0
   24.3630  116.8089   38.8396 H   0  0  0  0  0  0
   23.6809  113.4400   42.8191 H   0  0  0  0  0  0
   26.2077  116.0080   41.8802 H   0  0  0  0  0  0
   27.1321  117.3309   41.2343 H   0  0  0  0  0  0
   26.6738  117.2675   42.9440 H   0  0  0  0  0  0
   30.7305  115.7823   43.8854 H   0  0  0  0  0  0
   31.5192  117.1808   43.1651 H   0  0  0  0  0  0
   31.2341  115.7853   42.1890 H   0  0  0  0  0  0
   28.8314  117.6703   44.5374 H   0  0  0  0  0  0
   28.3236  118.7018   43.1810 H   0  0  0  0  0  0
   29.9838  118.7288   43.7134 H   0  0  0  0  0  0
   29.3476  115.4487   40.5363 H   0  0  0  0  0  0
   29.3949  114.1649   41.6858 H   0  0  0  0  0  0
   28.2532  115.3964   43.3522 H   0  0  0  0  0  0
   29.5920  117.3942   41.7182 H   0  0  0  0  0  0
  1  3  2  0  0  0
  1  5  1  0  0  0
  1 21  1  0  0  0
  2  4  2  0  0  0
  2  6  1  0  0  0
  2 22  1  0  0  0
  3  7  1  0  0  0
  3 23  1  0  0  0
  4  8  1  0  0  0
  4 24  1  0  0  0
  5  9  2  0  0  0
  5 25  1  0  0  0
  6 10  2  0  0  0
  6 26  1  0  0  0
  7 11  2  0  0  0
  7 27  1  0  0  0
  8 12  2  0  0  0
  8 28  1  0  0  0
  9 11  1  0  0  0
  9 18  1  0  0  0
 10 12  1  0  0  0
 10 18  1  0  0  0
 11 20  1  0  0  0
 12 20  1  0  0  0
 13 17  1  0  0  0
 13 29  1  0  0  0
 13 30  1  0  0  0
 13 31  1  0  0  0
 14 19  1  0  0  0
 14 32  1  0  0  0
 14 33  1  0  0  0
 14 34  1  0  0  0
 15 19  1  0  0  0
 15 35  1  0  0  0
 15 36  1  0  0  0
 15 37  1  0  0  0
 16 17  1  0  0  0
 16 18  1  0  0  0
 16 38  1  0  0  0
 16 39  1  0  0  0
 17 19  1  0  0  0
 17 40  1  0  0  0
 19 41  1  0  0  0
M  CHG  1  19   1
M  END
> <i_m_stars>
0

> <s_m_entry_id>
522

> <s_m_entry_name>
PMT1apsR.1

> <s_m_Source_Path>
/home/emilio/Dropbox/SAMPL9-eglab/mCD/ligsdfs

> <s_m_Source_File>
PMT1apsR.sdf

> <i_m_Source_File_Index>
1

> <i_lp_mmshare_version>
47013

> <s_epik_input>
W2NIXTFbY0hdW2NIXVtjSF1jKGMxMilTYzNjKFtjSF1bY0hdW2NIXVtjSF0zKU4yW0NIMl1bQ0BIXShbQ0gzXSlOKFtDSDNdKVtDSDNd

> <s_epik_cmdline>
J2VwaWtfcHl0aG9uJywgJy1waHQnLCAnNC4wJywgJy1waCcsICc3LjQnLCAnLXRuJywgJzgnLCAnLW1hJywgJzIwMCcsICctaW1hZScsICc8aW5maWxlLm1hZT4nLCAnLW9tYWUnLCAnPG91dGZpbGUubWFlPic=

> <r_epik_Ionization_Penalty>
  0.0045

> <r_epik_Ionization_Penalty_Charging>
  0.0045

> <r_epik_Ionization_Penalty_Neutral>
  0.0000

> <r_epik_State_Penalty>
  0.0032

> <r_epik_Charging_Adjusted_Penalty>
0.00770832931686598

> <i_epik_Tot_Q>
1

> <i_epik_Tot_abs_Q>
1

> <s_lp_Force_Field>
OPLS3e

> <r_lp_Energy>
58.361695

> <b_lp_Chiralities_Consistent>
1

> <s_lp_Variant>
PMT-1

> <s_m_job_name>
ligprep_4

> <chiral flag>
1

> <version>
0

> <i_f3d_flags>
0

> <s_m_subgroup_title>
bCDq->psR_copy1

> <s_m_subgroupid>
bCDq_copy1->psR_copy2

> <b_m_subgroup_collapsed>
0

$$$$
