CPZ1aspR
                    3D
 Structure written by MMmdl.
 41 43  0  0  1  0            999 V2000
   23.9748  105.2937   47.1629 C   0  0  0  0  0  0
   23.2111  106.3794   47.5742 C   0  0  0  0  0  0
   24.9953  105.4717   46.2302 C   0  0  0  0  0  0
   23.4848  107.6442   47.0658 C   0  0  0  0  0  0
   27.4370  110.3383   45.6222 C   0  0  0  0  0  0
   28.8230  110.1945   45.5239 C   0  0  0  0  0  0
   28.5296  107.8751   44.9404 C   0  0  0  0  0  0
   25.2844  106.7361   45.6771 C   0  0  0  0  0  0
   27.1231  107.9883   45.0090 C   0  0  0  0  0  0
   24.5147  107.8277   46.1397 C   0  0  0  0  0  0
   26.6016  109.2439   45.3802 C   0  0  0  0  0  0
   29.3956  108.9208   45.1714 C   0  0  0  0  0  0
   24.1448  108.8534   40.1439 C   0  0  0  0  0  0
   23.2055  106.7385   39.3155 C   0  0  0  0  0  0
   25.1446  107.2355   42.5234 C   0  0  0  0  0  0
   26.1785  106.4403   43.3021 C   0  0  0  0  0  0
   24.8326  106.6770   41.1412 C   0  0  0  0  0  0
   26.2592  106.9196   44.6667 N   0  0  0  0  0  0
   23.7541  107.4601   40.4815 N   0  3  0  0  0  0
   24.8794  109.4647   45.6272 S   0  0  0  0  0  0
   31.0793  108.7719   45.0771 Cl  0  0  0  0  0  0
   23.7748  104.3111   47.5636 H   0  0  0  0  0  0
   22.4193  106.2446   48.2959 H   0  0  0  0  0  0
   25.5474  104.5901   45.9547 H   0  0  0  0  0  0
   22.9056  108.4883   47.4110 H   0  0  0  0  0  0
   27.0283  111.2907   45.9060 H   0  0  0  0  0  0
   29.4656  111.0409   45.7182 H   0  0  0  0  0  0
   29.0073  106.9451   44.6781 H   0  0  0  0  0  0
   25.0211  108.8720   39.4971 H   0  0  0  0  0  0
   24.3710  109.4470   41.0286 H   0  0  0  0  0  0
   23.3376  109.3723   39.6301 H   0  0  0  0  0  0
   23.9716  106.6055   38.5540 H   0  0  0  0  0  0
   22.3695  107.2812   38.8747 H   0  0  0  0  0  0
   22.8405  105.7549   39.6067 H   0  0  0  0  0  0
   24.2209  107.2623   43.0881 H   0  0  0  0  0  0
   25.5136  108.2439   42.4580 H   0  0  0  0  0  0
   25.7895  105.4409   43.3959 H   0  0  0  0  0  0
   27.1569  106.3559   42.8162 H   0  0  0  0  0  0
   25.7368  106.6800   40.5360 H   0  0  0  0  0  0
   24.5187  105.6340   41.2388 H   0  0  0  0  0  0
   23.0005  107.5283   41.1523 H   0  0  0  0  0  0
  1  2  2  0  0  0
  1  3  1  0  0  0
  1 22  1  0  0  0
  2  4  1  0  0  0
  2 23  1  0  0  0
  3  8  2  0  0  0
  3 24  1  0  0  0
  4 10  2  0  0  0
  4 25  1  0  0  0
  5  6  2  0  0  0
  5 11  1  0  0  0
  5 26  1  0  0  0
  6 12  1  0  0  0
  6 27  1  0  0  0
  7  9  1  0  0  0
  7 12  2  0  0  0
  7 28  1  0  0  0
  8 10  1  0  0  0
  8 18  1  0  0  0
  9 11  2  0  0  0
  9 18  1  0  0  0
 10 20  1  0  0  0
 11 20  1  0  0  0
 12 21  1  0  0  0
 13 19  1  0  0  0
 13 29  1  0  0  0
 13 30  1  0  0  0
 13 31  1  0  0  0
 14 19  1  0  0  0
 14 32  1  0  0  0
 14 33  1  0  0  0
 14 34  1  0  0  0
 15 16  1  0  0  0
 15 17  1  0  0  0
 15 35  1  0  0  0
 15 36  1  0  0  0
 16 18  1  0  0  0
 16 37  1  0  0  0
 16 38  1  0  0  0
 17 19  1  0  0  0
 17 39  1  0  0  0
 17 40  1  0  0  0
 19 41  1  0  0  0
M  CHG  1  19   1
M  END
> <s_m_entry_id>
477

> <s_m_entry_name>
CPZ1aspR.1

> <s_m_Source_Path>
/home/emilio/Dropbox/SAMPL9-eglab/mCD/ligsdfs

> <s_m_Source_File>
CPZ1aspR.sdf

> <i_m_Source_File_Index>
1

> <i_lp_mmshare_version>
47013

> <s_epik_input>
W2NIXTFbY0hdW2NIXVtjSF1jKGMxMilTYzNjKFtjSF1jKENsKVtjSF1bY0hdMylOMltDSDJdW0NIMl1bQ0gyXU4oW0NIM10pW0NIM10=

> <s_epik_cmdline>
J2VwaWtfcHl0aG9uJywgJy1waHQnLCAnNC4wJywgJy1waCcsICc3LjQnLCAnLXRuJywgJzgnLCAnLW1hJywgJzIwMCcsICctaW1hZScsICc8aW5maWxlLm1hZT4nLCAnLW9tYWUnLCAnPG91dGZpbGUubWFlPic=

> <r_epik_Ionization_Penalty>
  0.0036

> <r_epik_Ionization_Penalty_Charging>
  0.0036

> <r_epik_Ionization_Penalty_Neutral>
  0.0000

> <r_epik_State_Penalty>
  0.0025

> <r_epik_Charging_Adjusted_Penalty>
0.00607902823301679

> <i_epik_Tot_Q>
1

> <i_epik_Tot_abs_Q>
1

> <s_lp_Force_Field>
OPLS3e

> <r_lp_Energy>
54.329832

> <b_lp_Chiralities_Consistent>
1

> <s_lp_Variant>
CPZ-1

> <s_m_job_name>
ligprep_4

> <chiral flag>
1

> <version>
0

> <i_f3d_flags>
0

> <b_m_Mark>
1

> <s_m_subgroup_title>
bCDq->spR

> <s_m_subgroupid>
bCDq_copy1->spR_copy1

> <b_m_subgroup_collapsed>
0

$$$$
