PMT1aspR
                    3D
 Structure written by MMmdl.
 41 43  0  0  1  0            999 V2000
   24.0943  105.3190   47.2842 C   0  0  0  0  0  0
   29.3746  108.9505   45.1886 C   0  0  0  0  0  0
   23.3276  106.4023   47.6960 C   0  0  0  0  0  0
   28.8208  110.1980   45.5094 C   0  0  0  0  0  0
   25.0786  105.4922   46.3132 C   0  0  0  0  0  0
   28.5240  107.8705   44.9442 C   0  0  0  0  0  0
   23.5627  107.6588   47.1485 C   0  0  0  0  0  0
   27.4144  110.3453   45.6063 C   0  0  0  0  0  0
   25.3265  106.7471   45.7179 C   0  0  0  0  0  0
   27.1250  107.9851   45.0041 C   0  0  0  0  0  0
   24.5569  107.8369   46.1830 C   0  0  0  0  0  0
   26.6007  109.2496   45.3704 C   0  0  0  0  0  0
   23.6765  107.3151   42.8010 C   0  0  0  0  0  0
   24.2680  106.9142   39.9394 C   0  0  0  0  0  0
   25.2808  104.9015   40.9332 C   0  0  0  0  0  0
   26.0848  106.3374   43.3346 C   0  0  0  0  0  0
   25.1278  107.0501   42.2976 C   0  0  1  0  0  0
   26.2608  106.9168   44.6668 N   0  0  0  0  0  0
   25.1697  106.3709   40.9750 N   0  3  0  0  0  0
   24.8800  109.4672   45.6280 S   0  0  0  0  0  0
   23.9228  104.3429   47.7125 H   0  0  0  0  0  0
   30.4377  108.8448   45.1246 H   0  0  0  0  0  0
   22.5628  106.2722   48.4471 H   0  0  0  0  0  0
   29.4666  111.0429   45.6985 H   0  0  0  0  0  0
   25.6290  104.6111   46.0267 H   0  0  0  0  0  0
   29.0130  106.9452   44.7010 H   0  0  0  0  0  0
   22.9827  108.5019   47.4939 H   0  0  0  0  0  0
   27.0260  111.2964   45.8817 H   0  0  0  0  0  0
   23.6570  107.8014   43.7724 H   0  0  0  0  0  0
   23.0573  106.4183   42.8794 H   0  0  0  0  0  0
   23.1503  107.9973   42.1253 H   0  0  0  0  0  0
   23.2379  106.7401   40.2021 H   0  0  0  0  0  0
   24.4903  106.4737   38.9564 H   0  0  0  0  0  0
   24.4152  107.9859   39.7382 H   0  0  0  0  0  0
   24.3753  104.4838   41.3511 H   0  0  0  0  0  0
   26.1626  104.5259   41.4591 H   0  0  0  0  0  0
   25.3915  104.5650   39.8934 H   0  0  0  0  0  0
   25.6575  105.4163   43.6895 H   0  0  0  0  0  0
   26.9976  105.9686   42.8619 H   0  0  0  0  0  0
   25.5652  108.0230   42.0935 H   0  0  0  0  0  0
   26.1059  106.6606   40.6729 H   0  0  0  0  0  0
  1  3  2  0  0  0
  1  5  1  0  0  0
  1 21  1  0  0  0
  2  4  2  0  0  0
  2  6  1  0  0  0
  2 22  1  0  0  0
  3  7  1  0  0  0
  3 23  1  0  0  0
  4  8  1  0  0  0
  4 24  1  0  0  0
  5  9  2  0  0  0
  5 25  1  0  0  0
  6 10  2  0  0  0
  6 26  1  0  0  0
  7 11  2  0  0  0
  7 27  1  0  0  0
  8 12  2  0  0  0
  8 28  1  0  0  0
  9 11  1  0  0  0
  9 18  1  0  0  0
 10 12  1  0  0  0
 10 18  1  0  0  0
 11 20  1  0  0  0
 12 20  1  0  0  0
 13 17  1  0  0  0
 13 29  1  0  0  0
 13 30  1  0  0  0
 13 31  1  0  0  0
 14 19  1  0  0  0
 14 32  1  0  0  0
 14 33  1  0  0  0
 14 34  1  0  0  0
 15 19  1  0  0  0
 15 35  1  0  0  0
 15 36  1  0  0  0
 15 37  1  0  0  0
 16 17  1  0  0  0
 16 18  1  0  0  0
 16 38  1  0  0  0
 16 39  1  0  0  0
 17 19  1  0  0  0
 17 40  1  0  0  0
 19 41  1  0  0  0
M  CHG  1  19   1
M  END
> <s_m_entry_id>
479

> <s_m_entry_name>
PMT1aspR.1

> <s_m_Source_Path>
/home/emilio/Dropbox/SAMPL9-eglab/mCD/ligsdfs

> <s_m_Source_File>
PMT1aspR.sdf

> <i_m_Source_File_Index>
1

> <i_lp_mmshare_version>
47013

> <s_epik_input>
W2NIXTFbY0hdW2NIXVtjSF1jKGMxMilTYzNjKFtjSF1bY0hdW2NIXVtjSF0zKU4yW0NIMl1bQ0BIXShbQ0gzXSlOKFtDSDNdKVtDSDNd

> <s_epik_cmdline>
J2VwaWtfcHl0aG9uJywgJy1waHQnLCAnNC4wJywgJy1waCcsICc3LjQnLCAnLXRuJywgJzgnLCAnLW1hJywgJzIwMCcsICctaW1hZScsICc8aW5maWxlLm1hZT4nLCAnLW9tYWUnLCAnPG91dGZpbGUubWFlPic=

> <r_epik_Ionization_Penalty>
  0.0045

> <r_epik_Ionization_Penalty_Charging>
  0.0045

> <r_epik_Ionization_Penalty_Neutral>
  0.0000

> <r_epik_State_Penalty>
  0.0032

> <r_epik_Charging_Adjusted_Penalty>
0.00770832931686598

> <i_epik_Tot_Q>
1

> <i_epik_Tot_abs_Q>
1

> <s_lp_Force_Field>
OPLS3e

> <r_lp_Energy>
58.361695

> <b_lp_Chiralities_Consistent>
1

> <s_lp_Variant>
PMT-1

> <s_m_job_name>
ligprep_4

> <chiral flag>
1

> <version>
0

> <i_f3d_flags>
0

> <s_m_subgroup_title>
bCDq->spR

> <s_m_subgroupid>
bCDq_copy1->spR_copy1

> <b_m_subgroup_collapsed>
0

$$$$
