TFP1bspR
                    3D
 Structure written by MMmdl.
 50 53  0  0  1  0            999 V2000
   23.6705  105.2588   46.8264 C   0  0  0  0  0  0
   23.0587  106.3621   47.4081 C   0  0  0  0  0  0
   24.6996  105.4379   45.9041 C   0  0  0  0  0  0
   23.4655  107.6428   47.0490 C   0  0  0  0  0  0
   27.4537  110.2323   45.9105 C   0  0  0  0  0  0
   28.8303  110.1146   45.7563 C   0  0  0  0  0  0
   28.5167  107.9244   44.8043 C   0  0  0  0  0  0
   25.1521  106.7225   45.5328 C   0  0  0  0  0  0
   27.1187  108.0002   44.9696 C   0  0  0  0  0  0
   24.4890  107.8255   46.1157 C   0  0  0  0  0  0
   26.6049  109.1986   45.5119 C   0  0  0  0  0  0
   29.3742  108.9607   45.1905 C   0  0  0  0  0  0
   22.6052  107.6593   39.9475 C   0  0  0  0  0  0
   23.8463  109.5443   40.7911 C   0  0  0  0  0  0
   21.3599  108.5497   39.9044 C   0  0  0  0  0  0
   22.5650  110.4013   40.7813 C   0  0  0  0  0  0
   25.3249  107.1689   42.4478 C   0  0  0  0  0  0
   26.3021  106.3396   43.3045 C   0  0  0  0  0  0
   24.6846  107.0805   41.0612 C   0  0  0  0  0  0
   26.2561  106.9185   44.6658 N   0  0  0  0  0  0
   23.5468  108.0706   40.9951 N   0  3  0  0  0  0
   21.7243  109.9494   39.6942 N   0  0  0  0  0  0
   31.1425  108.6097   43.6971 F   0  0  0  0  0  0
   31.3179  107.7540   45.6793 F   0  0  0  0  0  0
   31.5638  109.8822   45.3924 F   0  0  0  0  0  0
   24.8755  109.4638   45.6276 S   0  0  0  0  0  0
   30.8806  108.8086   44.9896 C   0  0  0  0  0  0
   23.3521  104.2621   47.0940 H   0  0  0  0  0  0
   22.2626  106.2271   48.1249 H   0  0  0  0  0  0
   25.1393  104.5423   45.4976 H   0  0  0  0  0  0
   22.9672  108.4965   47.4849 H   0  0  0  0  0  0
   27.0450  111.1428   46.3235 H   0  0  0  0  0  0
   29.4640  110.9323   46.0663 H   0  0  0  0  0  0
   28.9808  107.0552   44.3714 H   0  0  0  0  0  0
   22.2960  106.6371   40.1437 H   0  0  0  0  0  0
   23.1245  107.6718   38.9888 H   0  0  0  0  0  0
   24.4562  109.7226   39.9108 H   0  0  0  0  0  0
   24.4113  110.0519   41.5411 H   0  0  0  0  0  0
   20.7155  108.2379   39.0830 H   0  0  0  0  0  0
   20.7591  108.4600   40.8157 H   0  0  0  0  0  0
   22.0214  110.3538   41.7324 H   0  0  0  0  0  0
   22.7991  111.4619   40.6337 H   0  0  0  0  0  0
   24.7057  107.7592   43.1195 H   0  0  0  0  0  0
   26.1391  107.6720   41.9705 H   0  0  0  0  0  0
   26.0421  105.2753   43.3082 H   0  0  0  0  0  0
   27.3135  106.4169   42.9221 H   0  0  0  0  0  0
   25.4211  107.2697   40.2675 H   0  0  0  0  0  0
   24.3194  106.0566   40.9414 H   0  0  0  0  0  0
   22.1267  110.1352   38.7792 H   0  0  0  0  0  0
   23.0431  108.0278   41.8802 H   0  0  0  0  0  0
  1  2  2  0  0  0
  1  3  1  0  0  0
  1 28  1  0  0  0
  2  4  1  0  0  0
  2 29  1  0  0  0
  3  8  2  0  0  0
  3 30  1  0  0  0
  4 10  2  0  0  0
  4 31  1  0  0  0
  5  6  2  0  0  0
  5 11  1  0  0  0
  5 32  1  0  0  0
  6 12  1  0  0  0
  6 33  1  0  0  0
  7  9  1  0  0  0
  7 12  2  0  0  0
  7 34  1  0  0  0
  8 10  1  0  0  0
  8 20  1  0  0  0
  9 11  2  0  0  0
  9 20  1  0  0  0
 10 26  1  0  0  0
 11 26  1  0  0  0
 12 27  1  0  0  0
 13 15  1  0  0  0
 13 21  1  0  0  0
 13 35  1  0  0  0
 13 36  1  0  0  0
 14 16  1  0  0  0
 14 21  1  0  0  0
 14 37  1  0  0  0
 14 38  1  0  0  0
 15 22  1  0  0  0
 15 39  1  0  0  0
 15 40  1  0  0  0
 16 22  1  0  0  0
 16 41  1  0  0  0
 16 42  1  0  0  0
 17 18  1  0  0  0
 17 19  1  0  0  0
 17 43  1  0  0  0
 17 44  1  0  0  0
 18 20  1  0  0  0
 18 45  1  0  0  0
 18 46  1  0  0  0
 19 21  1  0  0  0
 19 47  1  0  0  0
 19 48  1  0  0  0
 21 50  1  0  0  0
 22 49  1  0  0  0
 23 27  1  0  0  0
 24 27  1  0  0  0
 25 27  1  0  0  0
M  CHG  1  21   1
M  END
> <s_m_entry_id>
488

> <s_m_entry_name>
TFP1bspR.1

> <s_m_Source_Path>
/home/emilio/Dropbox/SAMPL9-eglab/mCD/ligsdfs

> <s_m_Source_File>
TFP1bspR.sdf

> <i_m_Source_File_Index>
1

> <i_lp_mmshare_version>
47013

> <s_epik_input>
W2NIXTFbY0hdW2NIXVtjSF1jKGMxMilTYzNjKFtjSF1jKEMoRikoRilGKVtjSF1bY0hdMylOMltDSDJdW0NIMl1bQ0gyXU40W0NIMl1bQ0gyXVtOSF1bQ0gyXVtDSDJdNA==

> <s_epik_cmdline>
J2VwaWtfcHl0aG9uJywgJy1waHQnLCAnNC4wJywgJy1waCcsICc3LjQnLCAnLXRuJywgJzgnLCAnLW1hJywgJzIwMCcsICctaW1hZScsICc8aW5maWxlLm1hZT4nLCAnLW9tYWUnLCAnPG91dGZpbGUubWFlPic=

> <r_epik_Ionization_Penalty>
  0.1004

> <r_epik_Ionization_Penalty_Charging>
  0.0867

> <r_epik_Ionization_Penalty_Neutral>
  0.0137

> <r_epik_State_Penalty>
  1.6660

> <r_epik_Charging_Adjusted_Penalty>
1.75263574697331

> <i_epik_Tot_Q>
1

> <i_epik_Tot_abs_Q>
1

> <s_lp_Force_Field>
OPLS3e

> <r_lp_Energy>
57.544639

> <b_lp_Chiralities_Consistent>
1

> <s_lp_Variant>
TFP-2

> <s_m_job_name>
ligprep_4

> <chiral flag>
1

> <version>
0

> <i_f3d_flags>
0

> <s_m_subgroup_title>
bCDq->spR

> <s_m_subgroupid>
bCDq_copy1->spR_copy1

> <b_m_subgroup_collapsed>
0

$$$$
