TDZNS1aspR
                    3D
 Structure written by MMmdl.
 52 55  0  0  1  0            999 V2000
   23.5913  106.4499   47.8993 C   0  0  0  0  0  0
   23.1657  107.2225   48.9717 C   0  0  0  0  0  0
   24.4889  106.9786   46.9725 C   0  0  0  0  0  0
   23.6196  108.5302   49.0990 C   0  0  0  0  0  0
   27.5841  111.1362   48.6563 C   0  0  0  0  0  0
   28.9301  111.0025   48.3366 C   0  0  0  0  0  0
   28.3385  109.4838   46.5602 C   0  0  0  0  0  0
   24.9949  108.2907   47.0881 C   0  0  0  0  0  0
   26.9646  109.5787   46.8742 C   0  0  0  0  0  0
   24.5094  109.0671   48.1637 C   0  0  0  0  0  0
   26.6114  110.4474   47.9306 C   0  0  0  0  0  0
   29.3102  110.1794   47.2828 C   0  0  0  0  0  0
   22.0150  108.4705   43.6482 C   0  0  0  0  0  0
   21.7494  107.1396   42.9163 C   0  0  0  0  0  0
   23.1225  109.2506   42.9299 C   0  0  0  0  0  0
   23.0155  106.3015   42.6302 C   0  0  0  0  0  0
   24.3656  108.3678   42.7586 C   0  0  1  0  0  0
   25.1765  106.2714   41.5073 C   0  0  0  0  0  0
   31.9783  110.1879   48.4230 C   0  0  0  0  0  0
   24.8279  108.1222   44.1762 C   0  0  0  0  0  0
   25.7885  109.0973   44.8278 C   0  0  0  0  0  0
   25.9792  108.8100   46.2071 N   0  0  0  0  0  0
   24.0387  107.1314   41.9592 N   0  3  1  0  0  0
   24.9298  110.7610   48.3127 S   0  0  0  0  0  0
   31.0303  110.0441   46.8832 S   0  0  0  0  0  0
   23.2278  105.4401   47.7845 H   0  0  0  0  0  0
   22.4704  106.8174   49.6922 H   0  0  0  0  0  0
   24.7719  106.3250   46.1648 H   0  0  0  0  0  0
   23.2583  109.1378   49.9169 H   0  0  0  0  0  0
   27.2971  111.7987   49.4604 H   0  0  0  0  0  0
   29.6717  111.5489   48.9015 H   0  0  0  0  0  0
   28.6744  108.8649   45.7462 H   0  0  0  0  0  0
   21.1191  109.0629   43.7567 H   0  0  0  0  0  0
   22.2984  108.2686   44.6673 H   0  0  0  0  0  0
   21.0387  106.5305   43.4961 H   0  0  0  0  0  0
   21.2781  107.3741   41.9603 H   0  0  0  0  0  0
   22.7719  109.6252   41.9669 H   0  0  0  0  0  0
   23.3741  110.1601   43.4756 H   0  0  0  0  0  0
   23.4194  105.8797   43.5595 H   0  0  0  0  0  0
   22.7600  105.4452   41.9974 H   0  0  0  0  0  0
   25.1228  108.9341   42.2270 H   0  0  0  0  0  0
   25.5464  105.6457   42.3349 H   0  0  0  0  0  0
   26.0133  106.8614   41.1116 H   0  0  0  0  0  0
   24.8628  105.5827   40.7082 H   0  0  0  0  0  0
   33.0408  110.2793   48.1981 H   0  0  0  0  0  0
   31.8391  109.3048   49.0466 H   0  0  0  0  0  0
   31.6665  111.0716   48.9797 H   0  0  0  0  0  0
   24.1781  107.7224   44.9159 H   0  0  0  0  0  0
   25.2271  107.1894   44.0307 H   0  0  0  0  0  0
   26.7419  108.9045   44.4068 H   0  0  0  0  0  0
   25.6316  110.1405   44.6136 H   0  0  0  0  0  0
   23.6185  107.4704   41.0985 H   0  0  0  0  0  0
  1  2  2  0  0  0
  1  3  1  0  0  0
  1 26  1  0  0  0
  2  4  1  0  0  0
  2 27  1  0  0  0
  3  8  2  0  0  0
  3 28  1  0  0  0
  4 10  2  0  0  0
  4 29  1  0  0  0
  5  6  2  0  0  0
  5 11  1  0  0  0
  5 30  1  0  0  0
  6 12  1  0  0  0
  6 31  1  0  0  0
  7  9  1  0  0  0
  7 12  2  0  0  0
  7 32  1  0  0  0
  8 10  1  0  0  0
  8 22  1  0  0  0
  9 11  2  0  0  0
  9 22  1  0  0  0
 10 24  1  0  0  0
 11 24  1  0  0  0
 12 25  1  0  0  0
 13 14  1  0  0  0
 13 15  1  0  0  0
 13 33  1  0  0  0
 13 34  1  0  0  0
 14 16  1  0  0  0
 14 35  1  0  0  0
 14 36  1  0  0  0
 15 17  1  0  0  0
 15 37  1  0  0  0
 15 38  1  0  0  0
 16 23  1  0  0  0
 16 39  1  0  0  0
 16 40  1  0  0  0
 17 20  1  0  0  0
 17 23  1  0  0  0
 17 41  1  0  0  0
 18 23  1  0  0  0
 18 42  1  0  0  0
 18 43  1  0  0  0
 18 44  1  0  0  0
 19 25  1  0  0  0
 19 45  1  0  0  0
 19 46  1  0  0  0
 19 47  1  0  0  0
 20 21  1  0  0  0
 20 48  1  0  0  0
 20 49  1  0  0  0
 21 22  1  0  0  0
 21 50  1  0  0  0
 21 51  1  0  0  0
 23 52  1  0  0  0
M  CHG  1  23   1
M  END
> <s_m_entry_id>
575

> <s_m_entry_name>
TDZNS1aspR.1

> <s_m_Source_Path>
/home/emilio/Dropbox/SAMPL9-eglab/mCD/ligsdfs

> <s_m_Source_File>
TDZNS1aspR.sdf

> <i_m_Source_File_Index>
1

> <i_lp_mmshare_version>
47013

> <s_epik_input>
W2NIXTFbY0hdW2NIXVtjSF1jKGMxMilTYzNjKFtjSF1jKFtjSF1bY0hdMylTW0NIM10pTjJbQ0gyXVtDSDJdW0NAQEhdNFtDSDJdW0NIMl1bQ0gyXVtDSDJdTjRbQ0gzXQ==

> <s_epik_cmdline>
J2VwaWtfcHl0aG9uJywgJy1waHQnLCAnNC4wJywgJy1waCcsICc3LjQnLCAnLXRuJywgJzgnLCAnLW1hJywgJzIwMCcsICctaW1hZScsICc8aW5maWxlLm1hZT4nLCAnLW9tYWUnLCAnPG91dGZpbGUubWFlPic=

> <r_epik_Ionization_Penalty>
  0.0017

> <r_epik_Ionization_Penalty_Charging>
  0.0017

> <r_epik_Ionization_Penalty_Neutral>
  0.0000

> <r_epik_State_Penalty>
  0.0011

> <r_epik_Charging_Adjusted_Penalty>
0.00279136850725907

> <i_epik_Tot_Q>
1

> <i_epik_Tot_abs_Q>
1

> <s_lp_Force_Field>
OPLS3e

> <r_lp_Energy>
57.252618

> <b_lp_Chiralities_Consistent>
1

> <s_lp_Variant>
TDZ-NS-1

> <s_m_job_name>
ligprep_4

> <chiral flag>
1

> <version>
0

> <i_f3d_flags>
0

> <s_m_subgroup_title>
mCDq->spR d_copy1

> <s_m_subgroupid>
mCDq->spR_copy2

> <b_m_subgroup_collapsed>
0

$$$$
