TFP1bspR
                    3D
 Structure written by MMmdl.
 50 53  0  0  1  0            999 V2000
   23.3887  106.5361   47.7021 C   0  0  0  0  0  0
   22.9309  107.3088   48.7620 C   0  0  0  0  0  0
   24.3661  107.0377   46.8453 C   0  0  0  0  0  0
   23.4389  108.5895   48.9486 C   0  0  0  0  0  0
   27.5823  111.1337   48.6599 C   0  0  0  0  0  0
   28.9283  110.9975   48.3425 C   0  0  0  0  0  0
   28.3356  109.4865   46.5634 C   0  0  0  0  0  0
   24.9196  108.3250   47.0182 C   0  0  0  0  0  0
   26.9639  109.5819   46.8747 C   0  0  0  0  0  0
   24.4107  109.0996   48.0847 C   0  0  0  0  0  0
   26.6088  110.4486   47.9312 C   0  0  0  0  0  0
   29.3168  110.1787   47.2815 C   0  0  0  0  0  0
   21.8307  108.4062   43.8263 C   0  0  0  0  0  0
   22.6030  106.7501   45.3746 C   0  0  0  0  0  0
   20.3865  108.0960   44.2589 C   0  0  0  0  0  0
   21.1512  106.4081   45.7689 C   0  0  0  0  0  0
   25.0398  107.8746   44.3810 C   0  0  0  0  0  0
   25.9354  109.0531   44.7858 C   0  0  0  0  0  0
   24.0483  107.7037   43.3382 C   0  0  0  0  0  0
   25.9767  108.8127   46.2102 N   0  0  0  0  0  0
   22.7323  107.2637   43.9284 N   0  3  0  0  0  0
   20.3459  107.6105   45.6283 N   0  0  0  0  0  0
   30.9584  110.3999   45.6271 F   0  0  0  0  0  0
   31.1443  108.7433   47.0102 F   0  0  0  0  0  0
   31.5994  110.7537   47.6605 F   0  0  0  0  0  0
   24.9256  110.7597   48.3118 S   0  0  0  0  0  0
   30.7867  110.0229   46.8946 C   0  0  0  0  0  0
   22.9907  105.5444   47.5463 H   0  0  0  0  0  0
   22.1749  106.9223   49.4294 H   0  0  0  0  0  0
   24.6856  106.3853   46.0488 H   0  0  0  0  0  0
   23.0588  109.1953   49.7592 H   0  0  0  0  0  0
   27.2941  111.7935   49.4657 H   0  0  0  0  0  0
   29.6606  111.5446   48.9181 H   0  0  0  0  0  0
   28.6819  108.8686   45.7528 H   0  0  0  0  0  0
   21.8062  108.7185   42.7839 H   0  0  0  0  0  0
   22.2617  109.2092   44.4258 H   0  0  0  0  0  0
   23.0696  107.4052   46.1025 H   0  0  0  0  0  0
   22.9119  105.7852   45.6895 H   0  0  0  0  0  0
   19.8033  109.0381   44.1775 H   0  0  0  0  0  0
   19.9407  107.3598   43.5779 H   0  0  0  0  0  0
   20.7442  105.6186   45.1333 H   0  0  0  0  0  0
   21.0722  106.0424   46.8119 H   0  0  0  0  0  0
   25.2612  106.9418   44.8614 H   0  0  0  0  0  0
   24.2865  108.3643   44.8120 H   0  0  0  0  0  0
   26.9164  108.9157   44.3462 H   0  0  0  0  0  0
   25.5194  110.0288   44.4857 H   0  0  0  0  0  0
   23.8594  108.5798   42.7315 H   0  0  0  0  0  0
   24.3749  106.9940   42.6162 H   0  0  0  0  0  0
   20.5796  108.3074   46.3275 H   0  0  0  0  0  0
   22.3363  106.5165   43.3890 H   0  0  0  0  0  0
  1  2  2  0  0  0
  1  3  1  0  0  0
  1 28  1  0  0  0
  2  4  1  0  0  0
  2 29  1  0  0  0
  3  8  2  0  0  0
  3 30  1  0  0  0
  4 10  2  0  0  0
  4 31  1  0  0  0
  5  6  2  0  0  0
  5 11  1  0  0  0
  5 32  1  0  0  0
  6 12  1  0  0  0
  6 33  1  0  0  0
  7  9  1  0  0  0
  7 12  2  0  0  0
  7 34  1  0  0  0
  8 10  1  0  0  0
  8 20  1  0  0  0
  9 11  2  0  0  0
  9 20  1  0  0  0
 10 26  1  0  0  0
 11 26  1  0  0  0
 12 27  1  0  0  0
 13 15  1  0  0  0
 13 21  1  0  0  0
 13 35  1  0  0  0
 13 36  1  0  0  0
 14 16  1  0  0  0
 14 21  1  0  0  0
 14 37  1  0  0  0
 14 38  1  0  0  0
 15 22  1  0  0  0
 15 39  1  0  0  0
 15 40  1  0  0  0
 16 22  1  0  0  0
 16 41  1  0  0  0
 16 42  1  0  0  0
 17 18  1  0  0  0
 17 19  1  0  0  0
 17 43  1  0  0  0
 17 44  1  0  0  0
 18 20  1  0  0  0
 18 45  1  0  0  0
 18 46  1  0  0  0
 19 21  1  0  0  0
 19 47  1  0  0  0
 19 48  1  0  0  0
 21 50  1  0  0  0
 22 49  1  0  0  0
 23 27  1  0  0  0
 24 27  1  0  0  0
 25 27  1  0  0  0
M  CHG  1  21   1
M  END
> <s_m_entry_id>
578

> <s_m_entry_name>
TFP1bspR.1

> <s_m_Source_Path>
/home/emilio/Dropbox/SAMPL9-eglab/mCD/ligsdfs

> <s_m_Source_File>
TFP1bspR.sdf

> <i_m_Source_File_Index>
1

> <i_lp_mmshare_version>
47013

> <s_epik_input>
W2NIXTFbY0hdW2NIXVtjSF1jKGMxMilTYzNjKFtjSF1jKEMoRikoRilGKVtjSF1bY0hdMylOMltDSDJdW0NIMl1bQ0gyXU40W0NIMl1bQ0gyXVtOSF1bQ0gyXVtDSDJdNA==

> <s_epik_cmdline>
J2VwaWtfcHl0aG9uJywgJy1waHQnLCAnNC4wJywgJy1waCcsICc3LjQnLCAnLXRuJywgJzgnLCAnLW1hJywgJzIwMCcsICctaW1hZScsICc8aW5maWxlLm1hZT4nLCAnLW9tYWUnLCAnPG91dGZpbGUubWFlPic=

> <r_epik_Ionization_Penalty>
  0.1004

> <r_epik_Ionization_Penalty_Charging>
  0.0867

> <r_epik_Ionization_Penalty_Neutral>
  0.0137

> <r_epik_State_Penalty>
  1.6660

> <r_epik_Charging_Adjusted_Penalty>
1.75263574697331

> <i_epik_Tot_Q>
1

> <i_epik_Tot_abs_Q>
1

> <s_lp_Force_Field>
OPLS3e

> <r_lp_Energy>
57.544639

> <b_lp_Chiralities_Consistent>
1

> <s_lp_Variant>
TFP-2

> <s_m_job_name>
ligprep_4

> <chiral flag>
1

> <version>
0

> <i_f3d_flags>
0

> <s_m_subgroup_title>
mCDq->spR d_copy1

> <s_m_subgroupid>
mCDq->spR_copy2

> <b_m_subgroup_collapsed>
0

$$$$
