CPZ1aspR
                    3D
 Structure written by MMmdl.
 41 43  0  0  1  0            999 V2000
   23.6683  106.4187   47.9476 C   0  0  0  0  0  0
   23.0465  107.2609   48.8609 C   0  0  0  0  0  0
   24.6519  106.9176   47.0959 C   0  0  0  0  0  0
   23.4263  108.5964   48.9331 C   0  0  0  0  0  0
   27.5675  111.3538   48.4479 C   0  0  0  0  0  0
   28.9172  111.1723   48.1700 C   0  0  0  0  0  0
   28.3494  109.3806   46.6617 C   0  0  0  0  0  0
   25.0455  108.2715   47.1265 C   0  0  0  0  0  0
   26.9701  109.5521   46.9036 C   0  0  0  0  0  0
   24.4202  109.0965   48.0890 C   0  0  0  0  0  0
   26.6035  110.5498   47.8350 C   0  0  0  0  0  0
   29.3099  110.1784   47.2820 C   0  0  0  0  0  0
   22.0384  107.2377   43.2740 C   0  0  0  0  0  0
   22.9783  107.4948   41.0412 C   0  0  0  0  0  0
   24.7482  108.1445   44.2482 C   0  0  0  0  0  0
   25.8047  109.0991   44.8013 C   0  0  0  0  0  0
   24.1565  108.4460   42.9153 C   0  0  0  0  0  0
   25.9799  108.8127   46.2101 N   0  0  0  0  0  0
   23.2651  107.3735   42.4664 N   0  3  0  0  0  0
   24.9298  110.7597   48.3115 S   0  0  0  0  0  0
   30.9838  109.9371   46.9385 Cl  0  0  0  0  0  0
   23.3860  105.3773   47.8952 H   0  0  0  0  0  0
   22.2831  106.8776   49.5216 H   0  0  0  0  0  0
   25.0926  106.2121   46.4121 H   0  0  0  0  0  0
   22.9583  109.2392   49.6648 H   0  0  0  0  0  0
   27.2717  112.1121   49.1584 H   0  0  0  0  0  0
   29.6557  111.7959   48.6540 H   0  0  0  0  0  0
   28.7125  108.6321   45.9764 H   0  0  0  0  0  0
   21.4788  108.1597   43.2789 H   0  0  0  0  0  0
   22.2275  106.9672   44.2946 H   0  0  0  0  0  0
   21.3914  106.4765   42.8775 H   0  0  0  0  0  0
   22.4490  108.4136   40.8385 H   0  0  0  0  0  0
   22.3703  106.6868   40.6858 H   0  0  0  0  0  0
   23.8746  107.5021   40.4505 H   0  0  0  0  0  0
   25.3184  107.2213   44.1666 H   0  0  0  0  0  0
   24.0155  108.0130   45.0497 H   0  0  0  0  0  0
   26.8145  108.8338   44.4714 H   0  0  0  0  0  0
   25.7739  110.1190   44.4012 H   0  0  0  0  0  0
   23.6511  109.4038   42.9555 H   0  0  0  0  0  0
   24.9998  108.5548   42.2499 H   0  0  0  0  0  0
   23.7783  106.4944   42.5827 H   0  0  0  0  0  0
  1  2  2  0  0  0
  1  3  1  0  0  0
  1 22  1  0  0  0
  2  4  1  0  0  0
  2 23  1  0  0  0
  3  8  2  0  0  0
  3 24  1  0  0  0
  4 10  2  0  0  0
  4 25  1  0  0  0
  5  6  2  0  0  0
  5 11  1  0  0  0
  5 26  1  0  0  0
  6 12  1  0  0  0
  6 27  1  0  0  0
  7  9  1  0  0  0
  7 12  2  0  0  0
  7 28  1  0  0  0
  8 10  1  0  0  0
  8 18  1  0  0  0
  9 11  2  0  0  0
  9 18  1  0  0  0
 10 20  1  0  0  0
 11 20  1  0  0  0
 12 21  1  0  0  0
 13 19  1  0  0  0
 13 29  1  0  0  0
 13 30  1  0  0  0
 13 31  1  0  0  0
 14 19  1  0  0  0
 14 32  1  0  0  0
 14 33  1  0  0  0
 14 34  1  0  0  0
 15 16  1  0  0  0
 15 17  1  0  0  0
 15 35  1  0  0  0
 15 36  1  0  0  0
 16 18  1  0  0  0
 16 37  1  0  0  0
 16 38  1  0  0  0
 17 19  1  0  0  0
 17 39  1  0  0  0
 17 40  1  0  0  0
 19 41  1  0  0  0
M  CHG  1  19   1
M  END
> <s_m_entry_id>
567

> <s_m_entry_name>
CPZ1aspR.1

> <s_m_Source_Path>
/home/emilio/Dropbox/SAMPL9-eglab/mCD/ligsdfs

> <s_m_Source_File>
CPZ1aspR.sdf

> <i_m_Source_File_Index>
1

> <i_lp_mmshare_version>
47013

> <s_epik_input>
W2NIXTFbY0hdW2NIXVtjSF1jKGMxMilTYzNjKFtjSF1jKENsKVtjSF1bY0hdMylOMltDSDJdW0NIMl1bQ0gyXU4oW0NIM10pW0NIM10=

> <s_epik_cmdline>
J2VwaWtfcHl0aG9uJywgJy1waHQnLCAnNC4wJywgJy1waCcsICc3LjQnLCAnLXRuJywgJzgnLCAnLW1hJywgJzIwMCcsICctaW1hZScsICc8aW5maWxlLm1hZT4nLCAnLW9tYWUnLCAnPG91dGZpbGUubWFlPic=

> <r_epik_Ionization_Penalty>
  0.0036

> <r_epik_Ionization_Penalty_Charging>
  0.0036

> <r_epik_Ionization_Penalty_Neutral>
  0.0000

> <r_epik_State_Penalty>
  0.0025

> <r_epik_Charging_Adjusted_Penalty>
0.00607902823301679

> <i_epik_Tot_Q>
1

> <i_epik_Tot_abs_Q>
1

> <s_lp_Force_Field>
OPLS3e

> <r_lp_Energy>
54.329832

> <b_lp_Chiralities_Consistent>
1

> <s_lp_Variant>
CPZ-1

> <s_m_job_name>
ligprep_4

> <chiral flag>
1

> <version>
0

> <i_f3d_flags>
0

> <b_m_Mark>
1

> <s_m_subgroup_title>
mCDq->spR d_copy1

> <s_m_subgroupid>
mCDq->spR_copy2

> <b_m_subgroup_collapsed>
0

$$$$
