PMZ1aspS
                    3D
 Schrodinger Suite 2019-4.
 41 43  0  0  1  0            999 V2000
   19.9754  108.4834   37.3154 C   0  0  0  0  0  0
   25.6351  109.0876   40.0832 C   0  0  0  0  0  0
   19.3518  109.0074   38.4409 C   0  0  0  0  0  0
   25.0424  109.6086   41.2267 C   0  0  0  0  0  0
   21.1368  107.7251   37.4510 C   0  0  0  0  0  0
   24.9609  108.1363   39.3204 C   0  0  0  0  0  0
   19.8807  108.7522   39.7008 C   0  0  0  0  0  0
   23.7844  109.1611   41.6138 C   0  0  0  0  0  0
   21.7140  107.4669   38.7118 C   0  0  0  0  0  0
   23.6743  107.6747   39.6727 C   0  0  0  0  0  0
   21.0373  107.9813   39.8409 C   0  0  0  0  0  0
   23.1108  108.1986   40.8579 C   0  0  0  0  0  0
   22.0308  101.4847   38.0156 C   0  0  0  0  0  0
   23.8500  100.9898   36.3208 C   0  0  0  0  0  0
   23.3634  104.3260   38.2869 C   0  0  0  0  0  0
   23.5431  105.8185   37.9058 C   0  0  0  0  0  0
   23.4856  103.3967   37.0667 C   0  0  0  0  0  0
   22.9411  106.7744   38.8594 N   0  0  0  0  0  0
   23.4147  101.9084   37.4798 N   0  3  0  0  0  0
   21.5790  107.5987   41.4644 S   0  0  0  0  0  0
   19.5613  108.6670   36.3349 H   0  0  0  0  0  0
   26.6163  109.4247   39.7826 H   0  0  0  0  0  0
   18.4524  109.5967   38.3390 H   0  0  0  0  0  0
   25.5613  110.3478   41.8191 H   0  0  0  0  0  0
   21.5683  107.3494   36.5393 H   0  0  0  0  0  0
   25.4706  107.7794   38.4400 H   0  0  0  0  0  0
   19.3748  109.1386   40.5740 H   0  0  0  0  0  0
   23.3403  109.5514   42.5183 H   0  0  0  0  0  0
   21.2937  101.6918   37.2382 H   0  0  0  0  0  0
   21.8298  102.0523   38.9232 H   0  0  0  0  0  0
   22.0820  100.4192   38.2434 H   0  0  0  0  0  0
   23.1433  101.1286   35.5009 H   0  0  0  0  0  0
   23.8373   99.9649   36.6941 H   0  0  0  0  0  0
   24.8613  101.2820   36.0348 H   0  0  0  0  0  0
   24.1668  104.0315   38.9596 H   0  0  0  0  0  0
   22.4555  104.1686   38.8676 H   0  0  0  0  0  0
   24.6027  106.0510   37.7898 H   0  0  0  0  0  0
   23.1570  106.0126   36.9037 H   0  0  0  0  0  0
   22.6977  103.5526   36.3277 H   0  0  0  0  0  0
   24.4590  103.5219   36.5893 H   0  0  0  0  0  0
   24.0840  101.7737   38.2253 H   0  0  0  0  0  0
  1  3  2  0  0  0
  1  5  1  0  0  0
  1 21  1  0  0  0
  2  4  2  0  0  0
  2  6  1  0  0  0
  2 22  1  0  0  0
  3  7  1  0  0  0
  3 23  1  0  0  0
  4  8  1  0  0  0
  4 24  1  0  0  0
  5  9  2  0  0  0
  5 25  1  0  0  0
  6 10  2  0  0  0
  6 26  1  0  0  0
  7 11  2  0  0  0
  7 27  1  0  0  0
  8 12  2  0  0  0
  8 28  1  0  0  0
  9 11  1  0  0  0
  9 18  1  0  0  0
 10 12  1  0  0  0
 10 18  1  0  0  0
 11 20  1  0  0  0
 12 20  1  0  0  0
 13 19  1  0  0  0
 13 29  1  0  0  0
 13 30  1  0  0  0
 13 31  1  0  0  0
 14 19  1  0  0  0
 14 32  1  0  0  0
 14 33  1  0  0  0
 14 34  1  0  0  0
 15 16  1  0  0  0
 15 17  1  0  0  0
 15 35  1  0  0  0
 15 36  1  0  0  0
 16 18  1  0  0  0
 16 37  1  0  0  0
 16 38  1  0  0  0
 17 19  1  0  0  0
 17 39  1  0  0  0
 17 40  1  0  0  0
 19 41  1  0  0  0
M  CHG  1  19   1
M  END
> <s_m_entry_id>
104

> <s_m_entry_name>
PMZ.1

> <s_m_Source_Path>
/nfs/egallicchio/Dropbox/sims/SAMPL9

> <s_m_Source_File>
PMZ.mol2

> <i_m_Source_File_Index>
1

> <s_m_source_file>
ligprep_4.maegz

> <i_m_source_file_index>
3

> <i_lp_mmshare_version>
47013

> <s_epik_input>
W2NIXTFbY0hdW2NIXVtjSF1jKGMxMilTYzNjKFtjSF1bY0hdW2NIXVtjSF0zKU4yW0NIMl1bQ0gyXVtDSDJdTihbQ0gzXSlbQ0gzXQ==

> <s_epik_cmdline>
J2VwaWtfcHl0aG9uJywgJy1waHQnLCAnNC4wJywgJy1waCcsICc3LjQnLCAnLXRuJywgJzgnLCAnLW1hJywgJzIwMCcsICctaW1hZScsICc8aW5maWxlLm1hZT4nLCAnLW9tYWUnLCAnPG91dGZpbGUubWFlPic=

> <r_epik_Ionization_Penalty>
  0.0034

> <r_epik_Ionization_Penalty_Charging>
  0.0034

> <r_epik_Ionization_Penalty_Neutral>
  0.0000

> <r_epik_State_Penalty>
  0.0024

> <r_epik_Charging_Adjusted_Penalty>
0.0058317545360184

> <i_epik_Tot_Q>
1

> <i_epik_Tot_abs_Q>
1

> <i_f3d_flags>
0

> <s_lp_Force_Field>
OPLS3e

> <r_lp_Energy>
55.741628

> <b_lp_Chiralities_Consistent>
1

> <s_lp_Variant>
PMZ-1

> <s_m_job_name>
ligprep_4

> <s_m_subgroup_title>
spS

> <s_m_subgroupid>
spS

> <b_m_subgroup_collapsed>
0

$$$$
