PMZ1apsR
                    3D
 Schrodinger Suite 2019-4.
 41 43  0  0  1  0            999 V2000
   28.2831  114.4143   43.7938 C   0  0  0  0  0  0
   25.3937  111.5055   39.0419 C   0  0  0  0  0  0
   28.9787  113.3019   44.2509 C   0  0  0  0  0  0
   25.9474  110.2534   39.2784 C   0  0  0  0  0  0
   28.0029  114.5521   42.4356 C   0  0  0  0  0  0
   26.1216  112.6564   39.3366 C   0  0  0  0  0  0
   29.3723  112.3197   43.3495 C   0  0  0  0  0  0
   27.2209  110.1576   39.8277 C   0  0  0  0  0  0
   28.4083  113.5869   41.4905 C   0  0  0  0  0  0
   27.4248  112.5959   39.8758 C   0  0  0  0  0  0
   29.0813  112.4485   41.9893 C   0  0  0  0  0  0
   27.9487  111.3096   40.1357 C   0  0  0  0  0  0
   24.3265  117.0815   38.2598 C   0  0  0  0  0  0
   25.7073  118.5781   36.7496 C   0  0  0  0  0  0
   26.9417  115.3527   38.5679 C   0  0  0  0  0  0
   28.2787  114.9653   39.2515 C   0  0  0  0  0  0
   26.8973  116.8413   38.1815 C   0  0  0  0  0  0
   28.2097  113.7553   40.0979 N   0  0  0  0  0  0
   25.6062  117.1856   37.4035 N   0  3  0  0  0  0
   29.5003  111.1162   40.9287 S   0  0  0  0  0  0
   27.9627  115.1741   44.4915 H   0  0  0  0  0  0
   24.4010  111.5863   38.6238 H   0  0  0  0  0  0
   29.1986  113.1929   45.3027 H   0  0  0  0  0  0
   25.3868  109.3592   39.0490 H   0  0  0  0  0  0
   27.4610  115.4370   42.1494 H   0  0  0  0  0  0
   25.6399  113.5964   39.1206 H   0  0  0  0  0  0
   29.8877  111.4432   43.7154 H   0  0  0  0  0  0
   27.6352  109.1809   40.0332 H   0  0  0  0  0  0
   24.4392  117.7535   39.1121 H   0  0  0  0  0  0
   24.2128  116.0454   38.5757 H   0  0  0  0  0  0
   23.4871  117.3752   37.6282 H   0  0  0  0  0  0
   25.8065  119.3156   37.5479 H   0  0  0  0  0  0
   24.7969  118.7331   36.1692 H   0  0  0  0  0  0
   26.5819  118.5699   36.0977 H   0  0  0  0  0  0
   26.8493  114.8053   37.6316 H   0  0  0  0  0  0
   26.0839  115.0273   39.1550 H   0  0  0  0  0  0
   29.0586  114.8306   38.5005 H   0  0  0  0  0  0
   28.6702  115.7979   39.8385 H   0  0  0  0  0  0
   26.9289  117.5098   39.0437 H   0  0  0  0  0  0
   27.7195  117.0835   37.5059 H   0  0  0  0  0  0
   25.5241  116.5159   36.6508 H   0  0  0  0  0  0
  1  3  2  0  0  0
  1  5  1  0  0  0
  1 21  1  0  0  0
  2  4  2  0  0  0
  2  6  1  0  0  0
  2 22  1  0  0  0
  3  7  1  0  0  0
  3 23  1  0  0  0
  4  8  1  0  0  0
  4 24  1  0  0  0
  5  9  2  0  0  0
  5 25  1  0  0  0
  6 10  2  0  0  0
  6 26  1  0  0  0
  7 11  2  0  0  0
  7 27  1  0  0  0
  8 12  2  0  0  0
  8 28  1  0  0  0
  9 11  1  0  0  0
  9 18  1  0  0  0
 10 12  1  0  0  0
 10 18  1  0  0  0
 11 20  1  0  0  0
 12 20  1  0  0  0
 13 19  1  0  0  0
 13 29  1  0  0  0
 13 30  1  0  0  0
 13 31  1  0  0  0
 14 19  1  0  0  0
 14 32  1  0  0  0
 14 33  1  0  0  0
 14 34  1  0  0  0
 15 16  1  0  0  0
 15 17  1  0  0  0
 15 35  1  0  0  0
 15 36  1  0  0  0
 16 18  1  0  0  0
 16 37  1  0  0  0
 16 38  1  0  0  0
 17 19  1  0  0  0
 17 39  1  0  0  0
 17 40  1  0  0  0
 19 41  1  0  0  0
M  CHG  1  19   1
M  END
> <s_m_entry_id>
125

> <s_m_entry_name>
PMZ.1

> <s_m_Source_Path>
/nfs/egallicchio/Dropbox/sims/SAMPL9

> <s_m_Source_File>
PMZ.mol2

> <i_m_Source_File_Index>
1

> <s_m_source_file>
ligprep_4.maegz

> <i_m_source_file_index>
3

> <i_lp_mmshare_version>
47013

> <s_epik_input>
W2NIXTFbY0hdW2NIXVtjSF1jKGMxMilTYzNjKFtjSF1bY0hdW2NIXVtjSF0zKU4yW0NIMl1bQ0gyXVtDSDJdTihbQ0gzXSlbQ0gzXQ==

> <s_epik_cmdline>
J2VwaWtfcHl0aG9uJywgJy1waHQnLCAnNC4wJywgJy1waCcsICc3LjQnLCAnLXRuJywgJzgnLCAnLW1hJywgJzIwMCcsICctaW1hZScsICc8aW5maWxlLm1hZT4nLCAnLW9tYWUnLCAnPG91dGZpbGUubWFlPic=

> <r_epik_Ionization_Penalty>
  0.0034

> <r_epik_Ionization_Penalty_Charging>
  0.0034

> <r_epik_Ionization_Penalty_Neutral>
  0.0000

> <r_epik_State_Penalty>
  0.0024

> <r_epik_Charging_Adjusted_Penalty>
0.0058317545360184

> <i_epik_Tot_Q>
1

> <i_epik_Tot_abs_Q>
1

> <i_f3d_flags>
0

> <s_lp_Force_Field>
OPLS3e

> <r_lp_Energy>
55.741628

> <b_lp_Chiralities_Consistent>
1

> <s_lp_Variant>
PMZ-1

> <s_m_job_name>
ligprep_4

> <s_m_subgroup_title>
PMZ1a

> <s_m_subgroupid>
PMZ1a_copy1

> <b_m_subgroup_collapsed>
0

$$$$
