PMZ1assS
                    3D
 Schrodinger Suite 2019-4.
 41 43  0  0  1  0            999 V2000
   23.9096  110.3039   38.5002 C   0  0  0  0  0  0
   24.5736  104.4030   36.3097 C   0  0  0  0  0  0
   25.2847  110.4139   38.6651 C   0  0  0  0  0  0
   25.9517  104.4778   36.4689 C   0  0  0  0  0  0
   23.2833  109.0705   38.6699 C   0  0  0  0  0  0
   23.7327  105.0847   37.1871 C   0  0  0  0  0  0
   26.0258  109.2930   39.0211 C   0  0  0  0  0  0
   26.4834  105.2191   37.5180 C   0  0  0  0  0  0
   24.0076  107.9082   39.0073 C   0  0  0  0  0  0
   24.2388  105.8630   38.2504 C   0  0  0  0  0  0
   25.3991  108.0582   39.2048 C   0  0  0  0  0  0
   25.6428  105.8938   38.4066 C   0  0  0  0  0  0
   18.9730  107.3036   36.0175 C   0  0  0  0  0  0
   17.1747  106.6701   37.6883 C   0  0  0  0  0  0
   20.9815  107.0977   38.4355 C   0  0  0  0  0  0
   21.9737  106.3419   39.3570 C   0  0  0  0  0  0
   19.6183  106.3897   38.3459 C   0  0  0  0  0  0
   23.3996  106.6316   39.0957 N   0  0  0  0  0  0
   18.6073  107.2123   37.5141 N   0  3  0  0  0  0
   26.3758  106.7161   39.7706 S   0  0  0  0  0  0
   23.3267  111.1743   38.2371 H   0  0  0  0  0  0
   24.1545  103.8212   35.5020 H   0  0  0  0  0  0
   25.7732  111.3681   38.5330 H   0  0  0  0  0  0
   26.6065  103.9526   35.7892 H   0  0  0  0  0  0
   22.2165  109.0555   38.5275 H   0  0  0  0  0  0
   22.6742  104.9943   37.0035 H   0  0  0  0  0  0
   27.0908  109.3915   39.1758 H   0  0  0  0  0  0
   27.5552  105.2519   37.6514 H   0  0  0  0  0  0
   19.0381  106.2870   35.6268 H   0  0  0  0  0  0
   19.9226  107.8301   35.9317 H   0  0  0  0  0  0
   18.1835  107.8713   35.5233 H   0  0  0  0  0  0
   17.1539  105.6503   37.3003 H   0  0  0  0  0  0
   16.5067  107.3270   37.1296 H   0  0  0  0  0  0
   16.9413  106.7007   38.7534 H   0  0  0  0  0  0
   20.7742  108.0769   38.8633 H   0  0  0  0  0  0
   21.4253  107.3169   37.4653 H   0  0  0  0  0  0
   21.7525  106.5577   40.4034 H   0  0  0  0  0  0
   21.8065  105.2646   39.3071 H   0  0  0  0  0  0
   19.6761  105.4044   37.8799 H   0  0  0  0  0  0
   19.1730  106.2951   39.3377 H   0  0  0  0  0  0
   18.6100  108.1522   37.8860 H   0  0  0  0  0  0
  1  3  2  0  0  0
  1  5  1  0  0  0
  1 21  1  0  0  0
  2  4  2  0  0  0
  2  6  1  0  0  0
  2 22  1  0  0  0
  3  7  1  0  0  0
  3 23  1  0  0  0
  4  8  1  0  0  0
  4 24  1  0  0  0
  5  9  2  0  0  0
  5 25  1  0  0  0
  6 10  2  0  0  0
  6 26  1  0  0  0
  7 11  2  0  0  0
  7 27  1  0  0  0
  8 12  2  0  0  0
  8 28  1  0  0  0
  9 11  1  0  0  0
  9 18  1  0  0  0
 10 12  1  0  0  0
 10 18  1  0  0  0
 11 20  1  0  0  0
 12 20  1  0  0  0
 13 19  1  0  0  0
 13 29  1  0  0  0
 13 30  1  0  0  0
 13 31  1  0  0  0
 14 19  1  0  0  0
 14 32  1  0  0  0
 14 33  1  0  0  0
 14 34  1  0  0  0
 15 16  1  0  0  0
 15 17  1  0  0  0
 15 35  1  0  0  0
 15 36  1  0  0  0
 16 18  1  0  0  0
 16 37  1  0  0  0
 16 38  1  0  0  0
 17 19  1  0  0  0
 17 39  1  0  0  0
 17 40  1  0  0  0
 19 41  1  0  0  0
M  CHG  1  19   1
M  END
> <s_m_entry_id>
119

> <s_m_entry_name>
PMZ.1

> <s_m_Source_Path>
/nfs/egallicchio/Dropbox/sims/SAMPL9

> <s_m_Source_File>
PMZ.mol2

> <i_m_Source_File_Index>
1

> <s_m_source_file>
ligprep_4.maegz

> <i_m_source_file_index>
3

> <i_lp_mmshare_version>
47013

> <s_epik_input>
W2NIXTFbY0hdW2NIXVtjSF1jKGMxMilTYzNjKFtjSF1bY0hdW2NIXVtjSF0zKU4yW0NIMl1bQ0gyXVtDSDJdTihbQ0gzXSlbQ0gzXQ==

> <s_epik_cmdline>
J2VwaWtfcHl0aG9uJywgJy1waHQnLCAnNC4wJywgJy1waCcsICc3LjQnLCAnLXRuJywgJzgnLCAnLW1hJywgJzIwMCcsICctaW1hZScsICc8aW5maWxlLm1hZT4nLCAnLW9tYWUnLCAnPG91dGZpbGUubWFlPic=

> <r_epik_Ionization_Penalty>
  0.0034

> <r_epik_Ionization_Penalty_Charging>
  0.0034

> <r_epik_Ionization_Penalty_Neutral>
  0.0000

> <r_epik_State_Penalty>
  0.0024

> <r_epik_Charging_Adjusted_Penalty>
0.0058317545360184

> <i_epik_Tot_Q>
1

> <i_epik_Tot_abs_Q>
1

> <i_f3d_flags>
0

> <s_lp_Force_Field>
OPLS3e

> <r_lp_Energy>
55.741628

> <b_lp_Chiralities_Consistent>
1

> <s_lp_Variant>
PMZ-1

> <s_m_job_name>
ligprep_4

> <s_m_subgroup_title>
PMZ1a

> <s_m_subgroupid>
PMZ1a_copy1

> <b_m_subgroup_collapsed>
0

$$$$
