TDZNR1assR
                    3D
 Structure written by MMmdl.
 52 55  0  0  1  0            999 V2000
   32.5882  113.1013   47.5806 C   0  0  0  0  0  0
   32.9587  113.2589   46.2340 C   0  0  0  0  0  0
   31.3977  112.4253   47.9113 C   0  0  0  0  0  0
   32.1396  112.7279   45.2225 C   0  0  0  0  0  0
   28.8984  108.9002   44.3119 C   0  0  0  0  0  0
   28.2996  107.7873   44.9282 C   0  0  0  0  0  0
   28.4601  108.9198   47.0821 C   0  0  0  0  0  0
   30.5533  111.8940   46.9043 C   0  0  0  0  0  0
   29.0369  110.0618   46.4732 C   0  0  0  0  0  0
   30.9546  112.0411   45.5508 C   0  0  0  0  0  0
   29.2712  110.0242   45.0744 C   0  0  0  0  0  0
   28.0866  107.7976   46.3183 C   0  0  0  0  0  0
   24.8267  115.2105   49.2755 C   0  0  0  0  0  0
   25.0282  114.8442   50.7456 C   0  0  0  0  0  0
   26.0727  114.8151   48.4821 C   0  0  0  0  0  0
   25.3671  113.3518   50.8915 C   0  0  0  0  0  0
   26.3987  113.3137   48.6346 C   0  0  1  0  0  0
   26.8722  111.5202   50.3199 C   0  0  0  0  0  0
   27.7532  104.9354   46.2000 C   0  0  0  0  0  0
   27.6219  112.9579   47.7419 C   0  0  0  0  0  0
   28.4001  111.7212   48.2308 C   0  0  0  0  0  0
   29.3542  111.2158   47.2284 N   0  0  0  0  0  0
   26.5579  112.9556   50.0823 N   0  3  2  0  0  0
   29.9966  111.3850   44.2209 S   0  0  0  0  0  0
   27.3173  106.4332   47.1290 S   0  0  0  0  0  0
   33.2257  113.4880   48.3624 H   0  0  0  0  0  0
   33.8748  113.7716   45.9765 H   0  0  0  0  0  0
   31.1829  112.3007   48.9597 H   0  0  0  0  0  0
   32.4292  112.8335   44.1869 H   0  0  0  0  0  0
   29.0739  108.8926   43.2456 H   0  0  0  0  0  0
   28.0115  106.9384   44.3258 H   0  0  0  0  0  0
   28.3111  108.8657   48.1476 H   0  0  0  0  0  0
   23.9479  114.7027   48.8717 H   0  0  0  0  0  0
   24.6383  116.2807   49.1760 H   0  0  0  0  0  0
   25.8215  115.4586   51.1751 H   0  0  0  0  0  0
   24.1222  115.0803   51.3077 H   0  0  0  0  0  0
   25.9142  115.0541   47.4312 H   0  0  0  0  0  0
   26.9223  115.4226   48.8000 H   0  0  0  0  0  0
   25.5415  113.1305   51.9467 H   0  0  0  0  0  0
   24.5077  112.7491   50.5886 H   0  0  0  0  0  0
   25.5339  112.7497   48.2827 H   0  0  0  0  0  0
   26.1203  110.8726   49.8649 H   0  0  0  0  0  0
   26.8948  111.2980   51.3885 H   0  0  0  0  0  0
   27.8468  111.2258   49.9329 H   0  0  0  0  0  0
   27.4239  104.0483   46.7414 H   0  0  0  0  0  0
   28.8330  104.8706   46.0651 H   0  0  0  0  0  0
   27.2757  104.9279   45.2206 H   0  0  0  0  0  0
   27.3079  112.7838   46.7117 H   0  0  0  0  0  0
   28.3224  113.7851   47.6520 H   0  0  0  0  0  0
   28.9090  111.9725   49.1590 H   0  0  0  0  0  0
   27.6873  110.9655   48.5486 H   0  0  0  0  0  0
   27.3372  113.4961   50.4319 H   0  0  0  0  0  0
  1  2  2  0  0  0
  1  3  1  0  0  0
  1 26  1  0  0  0
  2  4  1  0  0  0
  2 27  1  0  0  0
  3  8  2  0  0  0
  3 28  1  0  0  0
  4 10  2  0  0  0
  4 29  1  0  0  0
  5  6  2  0  0  0
  5 11  1  0  0  0
  5 30  1  0  0  0
  6 12  1  0  0  0
  6 31  1  0  0  0
  7  9  1  0  0  0
  7 12  2  0  0  0
  7 32  1  0  0  0
  8 10  1  0  0  0
  8 22  1  0  0  0
  9 11  2  0  0  0
  9 22  1  0  0  0
 10 24  1  0  0  0
 11 24  1  0  0  0
 12 25  1  0  0  0
 13 14  1  0  0  0
 13 15  1  0  0  0
 13 33  1  0  0  0
 13 34  1  0  0  0
 14 16  1  0  0  0
 14 35  1  0  0  0
 14 36  1  0  0  0
 15 17  1  0  0  0
 15 37  1  0  0  0
 15 38  1  0  0  0
 16 23  1  0  0  0
 16 39  1  0  0  0
 16 40  1  0  0  0
 17 20  1  0  0  0
 17 23  1  0  0  0
 17 41  1  0  0  0
 18 23  1  0  0  0
 18 42  1  0  0  0
 18 43  1  0  0  0
 18 44  1  0  0  0
 19 25  1  0  0  0
 19 45  1  0  0  0
 19 46  1  0  0  0
 19 47  1  0  0  0
 20 21  1  0  0  0
 20 48  1  0  0  0
 20 49  1  0  0  0
 21 22  1  0  0  0
 21 50  1  0  0  0
 21 51  1  0  0  0
 23 52  1  0  0  0
M  CHG  1  23   1
M  END
> <s_m_entry_id>
586

> <s_m_entry_name>
TDZNR1assR.1

> <s_m_Source_Path>
/home/emilio/Dropbox/SAMPL9-eglab/mCD/ligsdfs

> <s_m_Source_File>
TDZNR1assR.sdf

> <i_m_Source_File_Index>
1

> <i_lp_mmshare_version>
47013

> <s_epik_input>
W2NIXTFbY0hdW2NIXVtjSF1jKGMxMilTYzNjKFtjSF1jKFtjSF1bY0hdMylTW0NIM10pTjJbQ0gyXVtDSDJdW0NAQEhdNFtDSDJdW0NIMl1bQ0gyXVtDSDJdTjRbQ0gzXQ==

> <s_epik_cmdline>
J2VwaWtfcHl0aG9uJywgJy1waHQnLCAnNC4wJywgJy1waCcsICc3LjQnLCAnLXRuJywgJzgnLCAnLW1hJywgJzIwMCcsICctaW1hZScsICc8aW5maWxlLm1hZT4nLCAnLW9tYWUnLCAnPG91dGZpbGUubWFlPic=

> <r_epik_Ionization_Penalty>
  0.0017

> <r_epik_Ionization_Penalty_Charging>
  0.0017

> <r_epik_Ionization_Penalty_Neutral>
  0.0000

> <r_epik_State_Penalty>
  0.0011

> <r_epik_Charging_Adjusted_Penalty>
0.00279136850725907

> <i_epik_Tot_Q>
1

> <i_epik_Tot_abs_Q>
1

> <s_lp_Force_Field>
OPLS3e

> <r_lp_Energy>
55.960333

> <b_lp_Chiralities_Consistent>
1

> <s_lp_Variant>
TDZ-NR-1

> <s_m_job_name>
ligprep_4

> <chiral flag>
1

> <version>
0

> <i_f3d_flags>
0

> <s_m_subgroup_title>
mCDq->ssR d_copy1

> <s_m_subgroupid>
mCDq->imported_structures_copy2

> <b_m_subgroup_collapsed>
0

$$$$
