TFP1bssR
                    3D
 Structure written by MMmdl.
 50 53  0  0  1  0            999 V2000
   32.7749  112.6669   47.6444 C   0  0  0  0  0  0
   33.2116  112.7320   46.3093 C   0  0  0  0  0  0
   31.4727  112.2248   47.9439 C   0  0  0  0  0  0
   32.3410  112.3665   45.2699 C   0  0  0  0  0  0
   28.8724  108.8952   44.2995 C   0  0  0  0  0  0
   28.3395  107.7603   44.9358 C   0  0  0  0  0  0
   28.3384  108.9689   47.0504 C   0  0  0  0  0  0
   30.5976  111.8201   46.9083 C   0  0  0  0  0  0
   28.8960  110.1148   46.4391 C   0  0  0  0  0  0
   31.0414  111.9144   45.5638 C   0  0  0  0  0  0
   29.1692  110.0547   45.0474 C   0  0  0  0  0  0
   28.0841  107.7928   46.3212 C   0  0  0  0  0  0
   24.2914  114.0184   48.7793 C   0  0  0  0  0  0
   25.3166  111.8169   48.5178 C   0  0  0  0  0  0
   22.9347  113.4058   48.3777 C   0  0  0  0  0  0
   23.9436  111.2411   48.1212 C   0  0  0  0  0  0
   27.8371  113.1876   47.5615 C   0  0  0  0  0  0
   28.4854  111.9262   48.1565 C   0  0  0  0  0  0
   26.7408  113.8887   48.3849 C   0  0  0  0  0  0
   29.3598  111.2177   47.2028 N   0  0  0  0  0  0
   25.4050  113.2621   48.1521 N   0  3  0  0  0  0
   22.8802  112.0006   48.7685 N   0  0  0  0  0  0
   26.3683  106.8306   47.5281 F   0  0  0  0  0  0
   28.3851  106.3653   48.1371 F   0  0  0  0  0  0
   27.5708  105.4777   46.3320 F   0  0  0  0  0  0
   29.9935  111.3880   44.2436 S   0  0  0  0  0  0
   27.5950  106.5761   47.0825 C   0  0  0  0  0  0
   33.4618  112.9068   48.4421 H   0  0  0  0  0  0
   34.2296  113.0161   46.0839 H   0  0  0  0  0  0
   31.1793  112.1321   48.9777 H   0  0  0  0  0  0
   32.6830  112.3765   44.2472 H   0  0  0  0  0  0
   29.1263  108.8576   43.2516 H   0  0  0  0  0  0
   28.1858  106.8476   44.3754 H   0  0  0  0  0  0
   28.1852  108.8997   48.1117 H   0  0  0  0  0  0
   24.3239  115.0587   48.4540 H   0  0  0  0  0  0
   24.4032  114.0197   49.8631 H   0  0  0  0  0  0
   25.4966  111.6765   49.5844 H   0  0  0  0  0  0
   26.0645  111.2188   47.9946 H   0  0  0  0  0  0
   22.1213  113.9462   48.8689 H   0  0  0  0  0  0
   22.7628  113.4919   47.3020 H   0  0  0  0  0  0
   23.8063  111.2631   47.0364 H   0  0  0  0  0  0
   23.8766  110.1897   48.4198 H   0  0  0  0  0  0
   28.6314  113.9092   47.3698 H   0  0  0  0  0  0
   27.3989  112.8863   46.6150 H   0  0  0  0  0  0
   29.0763  112.1776   49.0397 H   0  0  0  0  0  0
   27.7047  111.2474   48.5085 H   0  0  0  0  0  0
   26.9958  113.8505   49.4441 H   0  0  0  0  0  0
   26.6984  114.9504   48.1171 H   0  0  0  0  0  0
   22.8264  111.8516   49.7751 H   0  0  0  0  0  0
   25.2241  113.2964   47.1588 H   0  0  0  0  0  0
  1  2  2  0  0  0
  1  3  1  0  0  0
  1 28  1  0  0  0
  2  4  1  0  0  0
  2 29  1  0  0  0
  3  8  2  0  0  0
  3 30  1  0  0  0
  4 10  2  0  0  0
  4 31  1  0  0  0
  5  6  2  0  0  0
  5 11  1  0  0  0
  5 32  1  0  0  0
  6 12  1  0  0  0
  6 33  1  0  0  0
  7  9  1  0  0  0
  7 12  2  0  0  0
  7 34  1  0  0  0
  8 10  1  0  0  0
  8 20  1  0  0  0
  9 11  2  0  0  0
  9 20  1  0  0  0
 10 26  1  0  0  0
 11 26  1  0  0  0
 12 27  1  0  0  0
 13 15  1  0  0  0
 13 21  1  0  0  0
 13 35  1  0  0  0
 13 36  1  0  0  0
 14 16  1  0  0  0
 14 21  1  0  0  0
 14 37  1  0  0  0
 14 38  1  0  0  0
 15 22  1  0  0  0
 15 39  1  0  0  0
 15 40  1  0  0  0
 16 22  1  0  0  0
 16 41  1  0  0  0
 16 42  1  0  0  0
 17 18  1  0  0  0
 17 19  1  0  0  0
 17 43  1  0  0  0
 17 44  1  0  0  0
 18 20  1  0  0  0
 18 45  1  0  0  0
 18 46  1  0  0  0
 19 21  1  0  0  0
 19 47  1  0  0  0
 19 48  1  0  0  0
 21 50  1  0  0  0
 22 49  1  0  0  0
 23 27  1  0  0  0
 24 27  1  0  0  0
 25 27  1  0  0  0
M  CHG  1  21   1
M  END
> <s_m_entry_id>
591

> <s_m_entry_name>
TFP1bssR.1

> <s_m_Source_Path>
/home/emilio/Dropbox/SAMPL9-eglab/mCD/ligsdfs

> <s_m_Source_File>
TFP1bssR.sdf

> <i_m_Source_File_Index>
1

> <i_lp_mmshare_version>
47013

> <s_epik_input>
W2NIXTFbY0hdW2NIXVtjSF1jKGMxMilTYzNjKFtjSF1jKEMoRikoRilGKVtjSF1bY0hdMylOMltDSDJdW0NIMl1bQ0gyXU40W0NIMl1bQ0gyXVtOSF1bQ0gyXVtDSDJdNA==

> <s_epik_cmdline>
J2VwaWtfcHl0aG9uJywgJy1waHQnLCAnNC4wJywgJy1waCcsICc3LjQnLCAnLXRuJywgJzgnLCAnLW1hJywgJzIwMCcsICctaW1hZScsICc8aW5maWxlLm1hZT4nLCAnLW9tYWUnLCAnPG91dGZpbGUubWFlPic=

> <r_epik_Ionization_Penalty>
  0.1004

> <r_epik_Ionization_Penalty_Charging>
  0.0867

> <r_epik_Ionization_Penalty_Neutral>
  0.0137

> <r_epik_State_Penalty>
  1.6660

> <r_epik_Charging_Adjusted_Penalty>
1.75263574697331

> <i_epik_Tot_Q>
1

> <i_epik_Tot_abs_Q>
1

> <s_lp_Force_Field>
OPLS3e

> <r_lp_Energy>
57.544639

> <b_lp_Chiralities_Consistent>
1

> <s_lp_Variant>
TFP-2

> <s_m_job_name>
ligprep_4

> <chiral flag>
1

> <version>
0

> <i_f3d_flags>
0

> <s_m_subgroup_title>
mCDq->ssR d_copy1

> <s_m_subgroupid>
mCDq->imported_structures_copy2

> <b_m_subgroup_collapsed>
0

$$$$
