CPZ1assR
                    3D
 Structure written by MMmdl.
 41 43  0  0  1  0            999 V2000
   32.8177  112.5935   47.6261 C   0  0  0  0  0  0
   33.2042  112.7522   46.2838 C   0  0  0  0  0  0
   31.5435  112.0810   47.9374 C   0  0  0  0  0  0
   32.3180  112.3843   45.2555 C   0  0  0  0  0  0
   28.9277  108.8829   44.3164 C   0  0  0  0  0  0
   28.3307  107.7718   44.9387 C   0  0  0  0  0  0
   28.4374  108.9305   47.0805 C   0  0  0  0  0  0
   30.6321  111.7235   46.9135 C   0  0  0  0  0  0
   29.0315  110.0604   46.4684 C   0  0  0  0  0  0
   31.0467  111.8619   45.5640 C   0  0  0  0  0  0
   29.2790  110.0189   45.0723 C   0  0  0  0  0  0
   28.0861  107.7981   46.3224 C   0  0  0  0  0  0
   24.5632  114.7125   48.8971 C   0  0  0  0  0  0
   25.0513  113.1806   47.0435 C   0  0  0  0  0  0
   27.7253  113.0839   47.5247 C   0  0  0  0  0  0
   28.3288  111.7891   48.1012 C   0  0  0  0  0  0
   26.8710  113.8356   48.5628 C   0  0  0  0  0  0
   29.3534  111.2111   47.2222 N   0  0  0  0  0  0
   25.4097  113.5867   48.4250 N   0  3  0  0  0  0
   29.9979  111.3892   44.2230 S   0  0  0  0  0  0
   27.3388  106.4505   47.0951 Cl  0  0  0  0  0  0
   33.5063  112.8519   48.4184 H   0  0  0  0  0  0
   34.1846  113.1378   46.0415 H   0  0  0  0  0  0
   31.2962  111.9363   48.9774 H   0  0  0  0  0  0
   32.6212  112.4866   44.2237 H   0  0  0  0  0  0
   29.1213  108.8637   43.2535 H   0  0  0  0  0  0
   28.0661  106.8998   44.3575 H   0  0  0  0  0  0
   28.2565  108.9016   48.1425 H   0  0  0  0  0  0
   24.8018  115.6392   48.3722 H   0  0  0  0  0  0
   24.6831  114.8879   49.9666 H   0  0  0  0  0  0
   23.5053  114.5002   48.7344 H   0  0  0  0  0  0
   25.2494  113.9841   46.3313 H   0  0  0  0  0  0
   23.9932  112.9219   46.9712 H   0  0  0  0  0  0
   25.6207  112.3045   46.7284 H   0  0  0  0  0  0
   28.5383  113.7173   47.1652 H   0  0  0  0  0  0
   27.1152  112.8390   46.6556 H   0  0  0  0  0  0
   28.7336  112.0293   49.0829 H   0  0  0  0  0  0
   27.5512  111.0505   48.2953 H   0  0  0  0  0  0
   27.1969  113.5725   49.5715 H   0  0  0  0  0  0
   27.0582  114.9054   48.4496 H   0  0  0  0  0  0
   25.1935  112.7945   49.0171 H   0  0  0  0  0  0
  1  2  2  0  0  0
  1  3  1  0  0  0
  1 22  1  0  0  0
  2  4  1  0  0  0
  2 23  1  0  0  0
  3  8  2  0  0  0
  3 24  1  0  0  0
  4 10  2  0  0  0
  4 25  1  0  0  0
  5  6  2  0  0  0
  5 11  1  0  0  0
  5 26  1  0  0  0
  6 12  1  0  0  0
  6 27  1  0  0  0
  7  9  1  0  0  0
  7 12  2  0  0  0
  7 28  1  0  0  0
  8 10  1  0  0  0
  8 18  1  0  0  0
  9 11  2  0  0  0
  9 18  1  0  0  0
 10 20  1  0  0  0
 11 20  1  0  0  0
 12 21  1  0  0  0
 13 19  1  0  0  0
 13 29  1  0  0  0
 13 30  1  0  0  0
 13 31  1  0  0  0
 14 19  1  0  0  0
 14 32  1  0  0  0
 14 33  1  0  0  0
 14 34  1  0  0  0
 15 16  1  0  0  0
 15 17  1  0  0  0
 15 35  1  0  0  0
 15 36  1  0  0  0
 16 18  1  0  0  0
 16 37  1  0  0  0
 16 38  1  0  0  0
 17 19  1  0  0  0
 17 39  1  0  0  0
 17 40  1  0  0  0
 19 41  1  0  0  0
M  CHG  1  19   1
M  END
> <s_m_entry_id>
580

> <s_m_entry_name>
CPZ1assR.1

> <s_m_Source_Path>
/home/emilio/Dropbox/SAMPL9-eglab/mCD/ligsdfs

> <s_m_Source_File>
CPZ1assR.sdf

> <i_m_Source_File_Index>
1

> <i_lp_mmshare_version>
47013

> <s_epik_input>
W2NIXTFbY0hdW2NIXVtjSF1jKGMxMilTYzNjKFtjSF1jKENsKVtjSF1bY0hdMylOMltDSDJdW0NIMl1bQ0gyXU4oW0NIM10pW0NIM10=

> <s_epik_cmdline>
J2VwaWtfcHl0aG9uJywgJy1waHQnLCAnNC4wJywgJy1waCcsICc3LjQnLCAnLXRuJywgJzgnLCAnLW1hJywgJzIwMCcsICctaW1hZScsICc8aW5maWxlLm1hZT4nLCAnLW9tYWUnLCAnPG91dGZpbGUubWFlPic=

> <r_epik_Ionization_Penalty>
  0.0036

> <r_epik_Ionization_Penalty_Charging>
  0.0036

> <r_epik_Ionization_Penalty_Neutral>
  0.0000

> <r_epik_State_Penalty>
  0.0025

> <r_epik_Charging_Adjusted_Penalty>
0.00607902823301679

> <i_epik_Tot_Q>
1

> <i_epik_Tot_abs_Q>
1

> <s_lp_Force_Field>
OPLS3e

> <r_lp_Energy>
54.329832

> <b_lp_Chiralities_Consistent>
1

> <s_lp_Variant>
CPZ-1

> <s_m_job_name>
ligprep_4

> <chiral flag>
1

> <version>
0

> <i_f3d_flags>
0

> <b_m_Mark>
1

> <s_m_subgroup_title>
mCDq->ssR d_copy1

> <s_m_subgroupid>
mCDq->imported_structures_copy2

> <b_m_subgroup_collapsed>
0

$$$$
