TDZNS1assR
                    3D
 Structure written by MMmdl.
 52 55  0  0  1  0            999 V2000
   32.6993  112.9007   47.6007 C   0  0  0  0  0  0
   33.0890  113.0315   46.2571 C   0  0  0  0  0  0
   31.4639  112.3062   47.9232 C   0  0  0  0  0  0
   32.2406  112.5637   45.2380 C   0  0  0  0  0  0
   28.8846  108.9001   44.3106 C   0  0  0  0  0  0
   28.3059  107.7789   44.9307 C   0  0  0  0  0  0
   28.4270  108.9282   47.0774 C   0  0  0  0  0  0
   30.5953  111.8275   46.9089 C   0  0  0  0  0  0
   28.9944  110.0746   46.4674 C   0  0  0  0  0  0
   31.0081  111.9604   45.5577 C   0  0  0  0  0  0
   29.2372  110.0335   45.0696 C   0  0  0  0  0  0
   28.0841  107.7923   46.3197 C   0  0  0  0  0  0
   25.1326  110.4692   46.7962 C   0  0  0  0  0  0
   24.0446  111.2995   46.1360 C   0  0  0  0  0  0
   25.4723  111.0354   48.1809 C   0  0  0  0  0  0
   24.4412  112.7857   46.0853 C   0  0  0  0  0  0
   25.9088  112.5260   48.0955 C   0  0  1  0  0  0
   24.9876  114.7743   47.4576 C   0  0  0  0  0  0
   27.8211  104.9173   46.2035 C   0  0  0  0  0  0
   27.3080  112.7584   47.4376 C   0  0  0  0  0  0
   28.4301  111.9059   48.1009 C   0  0  0  0  0  0
   29.3572  111.2183   47.2188 N   0  0  0  0  0  0
   24.8095  113.2974   47.4412 N   0  3  1  0  0  0
   29.9962  111.3876   44.2291 S   0  0  0  0  0  0
   27.3753  106.4020   47.1471 S   0  0  0  0  0  0
   33.3609  113.2386   48.3861 H   0  0  0  0  0  0
   34.0445  113.4715   46.0062 H   0  0  0  0  0  0
   31.2293  112.1945   48.9684 H   0  0  0  0  0  0
   32.5441  112.6503   44.2050 H   0  0  0  0  0  0
   29.0761  108.8868   43.2476 H   0  0  0  0  0  0
   28.0501  106.9169   44.3329 H   0  0  0  0  0  0
   28.2799  108.8696   48.1436 H   0  0  0  0  0  0
   24.8500  109.4150   46.8889 H   0  0  0  0  0  0
   25.9963  110.5054   46.1388 H   0  0  0  0  0  0
   23.8744  110.9163   45.1274 H   0  0  0  0  0  0
   23.1219  111.1570   46.6905 H   0  0  0  0  0  0
   24.6024  110.9379   48.8302 H   0  0  0  0  0  0
   26.1738  110.3762   48.6721 H   0  0  0  0  0  0
   25.2632  112.9363   45.3886 H   0  0  0  0  0  0
   23.5960  113.3467   45.6924 H   0  0  0  0  0  0
   25.9729  112.8844   49.1231 H   0  0  0  0  0  0
   25.7757  115.0867   46.7766 H   0  0  0  0  0  0
   25.2377  115.1219   48.4598 H   0  0  0  0  0  0
   24.0673  115.2755   47.1553 H   0  0  0  0  0  0
   27.5144  104.0241   46.7482 H   0  0  0  0  0  0
   28.8995  104.8702   46.0497 H   0  0  0  0  0  0
   27.3249  104.9074   45.2334 H   0  0  0  0  0  0
   27.2821  112.6019   46.3627 H   0  0  0  0  0  0
   27.5899  113.8032   47.5652 H   0  0  0  0  0  0
   28.9466  112.4873   48.8804 H   0  0  0  0  0  0
   28.0375  111.0554   48.6771 H   0  0  0  0  0  0
   23.9955  113.1235   48.0073 H   0  0  0  0  0  0
  1  2  2  0  0  0
  1  3  1  0  0  0
  1 26  1  0  0  0
  2  4  1  0  0  0
  2 27  1  0  0  0
  3  8  2  0  0  0
  3 28  1  0  0  0
  4 10  2  0  0  0
  4 29  1  0  0  0
  5  6  2  0  0  0
  5 11  1  0  0  0
  5 30  1  0  0  0
  6 12  1  0  0  0
  6 31  1  0  0  0
  7  9  1  0  0  0
  7 12  2  0  0  0
  7 32  1  0  0  0
  8 10  1  0  0  0
  8 22  1  0  0  0
  9 11  2  0  0  0
  9 22  1  0  0  0
 10 24  1  0  0  0
 11 24  1  0  0  0
 12 25  1  0  0  0
 13 14  1  0  0  0
 13 15  1  0  0  0
 13 33  1  0  0  0
 13 34  1  0  0  0
 14 16  1  0  0  0
 14 35  1  0  0  0
 14 36  1  0  0  0
 15 17  1  0  0  0
 15 37  1  0  0  0
 15 38  1  0  0  0
 16 23  1  0  0  0
 16 39  1  0  0  0
 16 40  1  0  0  0
 17 20  1  0  0  0
 17 23  1  0  0  0
 17 41  1  0  0  0
 18 23  1  0  0  0
 18 42  1  0  0  0
 18 43  1  0  0  0
 18 44  1  0  0  0
 19 25  1  0  0  0
 19 45  1  0  0  0
 19 46  1  0  0  0
 19 47  1  0  0  0
 20 21  1  0  0  0
 20 48  1  0  0  0
 20 49  1  0  0  0
 21 22  1  0  0  0
 21 50  1  0  0  0
 21 51  1  0  0  0
 23 52  1  0  0  0
M  CHG  1  23   1
M  END
> <s_m_entry_id>
588

> <s_m_entry_name>
TDZNS1assR.1

> <s_m_Source_Path>
/home/emilio/Dropbox/SAMPL9-eglab/mCD/ligsdfs

> <s_m_Source_File>
TDZNS1assR.sdf

> <i_m_Source_File_Index>
1

> <i_lp_mmshare_version>
47013

> <s_epik_input>
W2NIXTFbY0hdW2NIXVtjSF1jKGMxMilTYzNjKFtjSF1jKFtjSF1bY0hdMylTW0NIM10pTjJbQ0gyXVtDSDJdW0NAQEhdNFtDSDJdW0NIMl1bQ0gyXVtDSDJdTjRbQ0gzXQ==

> <s_epik_cmdline>
J2VwaWtfcHl0aG9uJywgJy1waHQnLCAnNC4wJywgJy1waCcsICc3LjQnLCAnLXRuJywgJzgnLCAnLW1hJywgJzIwMCcsICctaW1hZScsICc8aW5maWxlLm1hZT4nLCAnLW9tYWUnLCAnPG91dGZpbGUubWFlPic=

> <r_epik_Ionization_Penalty>
  0.0017

> <r_epik_Ionization_Penalty_Charging>
  0.0017

> <r_epik_Ionization_Penalty_Neutral>
  0.0000

> <r_epik_State_Penalty>
  0.0011

> <r_epik_Charging_Adjusted_Penalty>
0.00279136850725907

> <i_epik_Tot_Q>
1

> <i_epik_Tot_abs_Q>
1

> <s_lp_Force_Field>
OPLS3e

> <r_lp_Energy>
57.252618

> <b_lp_Chiralities_Consistent>
1

> <s_lp_Variant>
TDZ-NS-1

> <s_m_job_name>
ligprep_4

> <chiral flag>
1

> <version>
0

> <i_f3d_flags>
0

> <s_m_subgroup_title>
mCDq->ssR d_copy1

> <s_m_subgroupid>
mCDq->imported_structures_copy2

> <b_m_subgroup_collapsed>
0

$$$$
