TFP1aspR
                    3D
 Structure written by MMmdl.
 50 53  0  0  1  0            999 V2000
   23.9616  105.2892   47.1498 C   0  0  0  0  0  0
   23.3646  106.4008   47.7324 C   0  0  0  0  0  0
   24.8899  105.4538   46.1223 C   0  0  0  0  0  0
   23.6826  107.6732   47.2728 C   0  0  0  0  0  0
   27.4460  110.2425   45.9016 C   0  0  0  0  0  0
   28.8309  110.1179   45.7486 C   0  0  0  0  0  0
   28.5185  107.9247   44.8073 C   0  0  0  0  0  0
   25.2507  106.7294   45.6465 C   0  0  0  0  0  0
   27.1166  108.0047   44.9664 C   0  0  0  0  0  0
   24.6026  107.8396   46.2340 C   0  0  0  0  0  0
   26.6046  109.2015   45.5041 C   0  0  0  0  0  0
   29.3859  108.9472   45.1780 C   0  0  0  0  0  0
   24.7897  105.9535   38.5823 C   0  0  0  0  0  0
   24.6801  108.2027   39.4487 C   0  0  0  0  0  0
   24.0135  106.4071   37.3298 C   0  0  0  0  0  0
   23.8140  108.5804   38.1776 C   0  0  0  0  0  0
   25.1869  106.9006   42.2833 C   0  0  0  0  0  0
   26.1522  106.2949   43.3389 C   0  0  0  0  0  0
   25.2977  106.2378   40.8789 C   0  0  0  0  0  0
   26.2559  106.9195   44.6666 N   0  0  0  0  0  0
   24.4772  106.7758   39.7700 N   0  0  0  0  0  0
   24.2963  107.8165   37.0595 N   0  3  0  0  0  0
   31.2908  107.6668   45.5849 F   0  0  0  0  0  0
   31.5751  109.8074   45.5382 F   0  0  0  0  0  0
   31.1686  108.7347   43.7013 F   0  0  0  0  0  0
   24.8748  109.4633   45.6271 S   0  0  0  0  0  0
   30.8831  108.7977   45.0067 C   0  0  0  0  0  0
   23.7088  104.2972   47.4965 H   0  0  0  0  0  0
   22.6463  106.2754   48.5308 H   0  0  0  0  0  0
   25.3172  104.5530   45.7183 H   0  0  0  0  0  0
   23.1962  108.5311   47.7124 H   0  0  0  0  0  0
   27.0463  111.1501   46.3103 H   0  0  0  0  0  0
   29.4653  110.9355   46.0582 H   0  0  0  0  0  0
   28.9809  107.0449   44.3903 H   0  0  0  0  0  0
   24.5261  104.9159   38.7852 H   0  0  0  0  0  0
   25.8645  105.9857   38.3853 H   0  0  0  0  0  0
   25.7432  108.3379   39.2511 H   0  0  0  0  0  0
   24.4709  108.8236   40.3261 H   0  0  0  0  0  0
   24.2767  105.8461   36.4348 H   0  0  0  0  0  0
   22.9371  106.2917   37.4838 H   0  0  0  0  0  0
   22.7314  108.4189   38.1669 H   0  0  0  0  0  0
   24.0533  109.5289   37.6860 H   0  0  0  0  0  0
   24.1557  107.0054   42.5962 H   0  0  0  0  0  0
   25.3948  107.9577   42.1921 H   0  0  0  0  0  0
   25.7963  105.2966   43.5698 H   0  0  0  0  0  0
   27.1596  106.1092   42.9171 H   0  0  0  0  0  0
   26.3584  106.2175   40.6336 H   0  0  0  0  0  0
   25.0109  105.1902   40.9943 H   0  0  0  0  0  0
   25.2921  107.9999   36.9942 H   0  0  0  0  0  0
   23.8207  108.1782   36.2553 H   0  0  0  0  0  0
  1  2  2  0  0  0
  1  3  1  0  0  0
  1 28  1  0  0  0
  2  4  1  0  0  0
  2 29  1  0  0  0
  3  8  2  0  0  0
  3 30  1  0  0  0
  4 10  2  0  0  0
  4 31  1  0  0  0
  5  6  2  0  0  0
  5 11  1  0  0  0
  5 32  1  0  0  0
  6 12  1  0  0  0
  6 33  1  0  0  0
  7  9  1  0  0  0
  7 12  2  0  0  0
  7 34  1  0  0  0
  8 10  1  0  0  0
  8 20  1  0  0  0
  9 11  2  0  0  0
  9 20  1  0  0  0
 10 26  1  0  0  0
 11 26  1  0  0  0
 12 27  1  0  0  0
 13 15  1  0  0  0
 13 21  1  0  0  0
 13 35  1  0  0  0
 13 36  1  0  0  0
 14 16  1  0  0  0
 14 21  1  0  0  0
 14 37  1  0  0  0
 14 38  1  0  0  0
 15 22  1  0  0  0
 15 39  1  0  0  0
 15 40  1  0  0  0
 16 22  1  0  0  0
 16 41  1  0  0  0
 16 42  1  0  0  0
 17 18  1  0  0  0
 17 19  1  0  0  0
 17 43  1  0  0  0
 17 44  1  0  0  0
 18 20  1  0  0  0
 18 45  1  0  0  0
 18 46  1  0  0  0
 19 21  1  0  0  0
 19 47  1  0  0  0
 19 48  1  0  0  0
 22 49  1  0  0  0
 22 50  1  0  0  0
 23 27  1  0  0  0
 24 27  1  0  0  0
 25 27  1  0  0  0
M  CHG  1  22   1
M  END
> <s_m_entry_id>
487

> <s_m_entry_name>
TFP1aspR.1

> <s_m_Source_Path>
/home/emilio/Dropbox/SAMPL9-eglab/mCD/ligsdfs

> <s_m_Source_File>
TFP1aspR.sdf

> <i_m_Source_File_Index>
1

> <i_lp_mmshare_version>
47013

> <s_epik_input>
W2NIXTFbY0hdW2NIXVtjSF1jKGMxMilTYzNjKFtjSF1jKEMoRikoRilGKVtjSF1bY0hdMylOMltDSDJdW0NIMl1bQ0gyXU40W0NIMl1bQ0gyXVtOSF1bQ0gyXVtDSDJdNA==

> <s_epik_cmdline>
J2VwaWtfcHl0aG9uJywgJy1waHQnLCAnNC4wJywgJy1waCcsICc3LjQnLCAnLXRuJywgJzgnLCAnLW1hJywgJzIwMCcsICctaW1hZScsICc8aW5maWxlLm1hZT4nLCAnLW9tYWUnLCAnPG91dGZpbGUubWFlPic=

> <r_epik_Ionization_Penalty>
  0.0078

> <r_epik_Ionization_Penalty_Charging>
  0.0071

> <r_epik_Ionization_Penalty_Neutral>
  0.0007

> <r_epik_State_Penalty>
  0.0420

> <r_epik_Charging_Adjusted_Penalty>
0.0491285084707666

> <i_epik_Tot_Q>
1

> <i_epik_Tot_abs_Q>
1

> <s_lp_Force_Field>
OPLS3e

> <r_lp_Energy>
60.619284

> <b_lp_Chiralities_Consistent>
1

> <s_lp_Variant>
TFP-1

> <s_m_job_name>
ligprep_4

> <chiral flag>
1

> <version>
0

> <i_f3d_flags>
0

> <s_m_subgroup_title>
bCDq->spR

> <s_m_subgroupid>
bCDq_copy1->spR_copy1

> <b_m_subgroup_collapsed>
0

$$$$
