TDZNS1apsS
                    3D
 Structure written by MMmdl.
 52 55  0  0  1  0            999 V2000
   22.2949  117.3379   46.5762 C   0  0  0  0  0  0
   22.0569  117.7425   45.2477 C   0  0  0  0  0  0
   22.9129  116.0985   46.8376 C   0  0  0  0  0  0
   22.4415  116.9091   44.1840 C   0  0  0  0  0  0
   22.8009  111.9711   43.0325 C   0  0  0  0  0  0
   22.5549  110.7150   43.6126 C   0  0  0  0  0  0
   23.2493  111.5853   45.7890 C   0  0  0  0  0  0
   23.2744  115.2375   45.7795 C   0  0  0  0  0  0
   23.4638  112.8614   45.2231 C   0  0  0  0  0  0
   23.0327  115.6600   44.4462 C   0  0  0  0  0  0
   23.2333  113.0406   43.8359 C   0  0  0  0  0  0
   22.7711  110.5230   44.9896 C   0  0  0  0  0  0
   25.6260  115.7259   43.0693 C   0  0  0  0  0  0
   27.0723  115.9276   42.5873 C   0  0  0  0  0  0
   25.4324  116.2643   44.4957 C   0  0  0  0  0  0
   28.0967  115.4032   43.6092 C   0  0  0  0  0  0
   26.4838  115.7054   45.4832 C   0  0  1  0  0  0
   28.9560  115.7822   45.9124 C   0  0  0  0  0  0
   21.7992  107.8485   44.3748 C   0  0  0  0  0  0
   26.2828  114.1973   45.8093 C   0  0  0  0  0  0
   25.0901  113.9097   46.7441 C   0  0  0  0  0  0
   23.8037  113.9606   46.0341 N   0  0  0  0  0  0
   27.8481  116.0083   44.9469 N   0  3  1  0  0  0
   23.4490  114.6195   43.0870 S   0  0  0  0  0  0
   22.3971  108.9452   45.6876 S   0  0  0  0  0  0
   21.9997  117.9766   47.3940 H   0  0  0  0  0  0
   21.5694  118.6844   45.0428 H   0  0  0  0  0  0
   23.0614  115.8090   47.8629 H   0  0  0  0  0  0
   22.2727  117.2140   43.1617 H   0  0  0  0  0  0
   22.6342  112.1271   41.9780 H   0  0  0  0  0  0
   22.1877  109.9040   42.9995 H   0  0  0  0  0  0
   23.3948  111.4398   46.8427 H   0  0  0  0  0  0
   24.9391  116.2264   42.3845 H   0  0  0  0  0  0
   25.3645  114.6703   43.0238 H   0  0  0  0  0  0
   27.2133  115.4267   41.6269 H   0  0  0  0  0  0
   27.2525  116.9874   42.3951 H   0  0  0  0  0  0
   25.5038  117.3541   44.4726 H   0  0  0  0  0  0
   24.4200  116.0479   44.8399 H   0  0  0  0  0  0
   28.0556  114.3140   43.6715 H   0  0  0  0  0  0
   29.1026  115.6566   43.2709 H   0  0  0  0  0  0
   26.3849  116.2661   46.4223 H   0  0  0  0  0  0
   29.1503  114.7188   46.0769 H   0  0  0  0  0  0
   28.7395  116.2463   46.8765 H   0  0  0  0  0  0
   29.8809  116.2288   45.5356 H   0  0  0  0  0  0
   21.5230  106.8843   44.8026 H   0  0  0  0  0  0
   22.5725  107.6761   43.6269 H   0  0  0  0  0  0
   20.9193  108.2750   43.8931 H   0  0  0  0  0  0
   26.1601  113.6254   44.8926 H   0  0  0  0  0  0
   27.1751  113.7916   46.2831 H   0  0  0  0  0  0
   25.1913  112.9253   47.2055 H   0  0  0  0  0  0
   25.0881  114.6157   47.5747 H   0  0  0  0  0  0
   27.8431  117.0067   44.7910 H   0  0  0  0  0  0
  1  2  2  0  0  0
  1  3  1  0  0  0
  1 26  1  0  0  0
  2  4  1  0  0  0
  2 27  1  0  0  0
  3  8  2  0  0  0
  3 28  1  0  0  0
  4 10  2  0  0  0
  4 29  1  0  0  0
  5  6  2  0  0  0
  5 11  1  0  0  0
  5 30  1  0  0  0
  6 12  1  0  0  0
  6 31  1  0  0  0
  7  9  1  0  0  0
  7 12  2  0  0  0
  7 32  1  0  0  0
  8 10  1  0  0  0
  8 22  1  0  0  0
  9 11  2  0  0  0
  9 22  1  0  0  0
 10 24  1  0  0  0
 11 24  1  0  0  0
 12 25  1  0  0  0
 13 14  1  0  0  0
 13 15  1  0  0  0
 13 33  1  0  0  0
 13 34  1  0  0  0
 14 16  1  0  0  0
 14 35  1  0  0  0
 14 36  1  0  0  0
 15 17  1  0  0  0
 15 37  1  0  0  0
 15 38  1  0  0  0
 16 23  1  0  0  0
 16 39  1  0  0  0
 16 40  1  0  0  0
 17 20  1  0  0  0
 17 23  1  0  0  0
 17 41  1  0  0  0
 18 23  1  0  0  0
 18 42  1  0  0  0
 18 43  1  0  0  0
 18 44  1  0  0  0
 19 25  1  0  0  0
 19 45  1  0  0  0
 19 46  1  0  0  0
 19 47  1  0  0  0
 20 21  1  0  0  0
 20 48  1  0  0  0
 20 49  1  0  0  0
 21 22  1  0  0  0
 21 50  1  0  0  0
 21 51  1  0  0  0
 23 52  1  0  0  0
M  CHG  1  23   1
M  END
> <s_m_entry_id>
408

> <s_m_entry_name>
TDZNS1apsS.1

> <s_m_Source_Path>
/home/emilio/Dropbox/SAMPL9-eglab/mCD/ligsdfs

> <s_m_Source_File>
TDZNS1apsS.sdf

> <i_m_Source_File_Index>
1

> <i_lp_mmshare_version>
47013

> <s_epik_input>
W2NIXTFbY0hdW2NIXVtjSF1jKGMxMilTYzNjKFtjSF1jKFtjSF1bY0hdMylTW0NIM10pTjJbQ0gyXVtDSDJdW0NAQEhdNFtDSDJdW0NIMl1bQ0gyXVtDSDJdTjRbQ0gzXQ==

> <s_epik_cmdline>
J2VwaWtfcHl0aG9uJywgJy1waHQnLCAnNC4wJywgJy1waCcsICc3LjQnLCAnLXRuJywgJzgnLCAnLW1hJywgJzIwMCcsICctaW1hZScsICc8aW5maWxlLm1hZT4nLCAnLW9tYWUnLCAnPG91dGZpbGUubWFlPic=

> <r_epik_Ionization_Penalty>
  0.0017

> <r_epik_Ionization_Penalty_Charging>
  0.0017

> <r_epik_Ionization_Penalty_Neutral>
  0.0000

> <r_epik_State_Penalty>
  0.0011

> <r_epik_Charging_Adjusted_Penalty>
0.00279136850725907

> <i_epik_Tot_Q>
1

> <i_epik_Tot_abs_Q>
1

> <s_lp_Force_Field>
OPLS3e

> <r_lp_Energy>
57.252618

> <b_lp_Chiralities_Consistent>
1

> <s_lp_Variant>
TDZ-NS-1

> <s_m_job_name>
ligprep_4

> <chiral flag>
1

> <version>
0

> <i_f3d_flags>
0

> <s_m_subgroup_title>
bCDq->psS

> <s_m_subgroupid>
bCDq_copy1->psS_copy1_copy1

> <b_m_subgroup_collapsed>
0

$$$$
