TFP1bpsS
                    3D
 Structure written by MMmdl.
 50 53  0  0  1  0            999 V2000
   22.3857  117.4271   46.4759 C   0  0  0  0  0  0
   22.2954  117.8451   45.1528 C   0  0  0  0  0  0
   22.8543  116.1475   46.7721 C   0  0  0  0  0  0
   22.6557  116.9725   44.1285 C   0  0  0  0  0  0
   22.9474  111.9684   43.0117 C   0  0  0  0  0  0
   22.7011  110.6947   43.5926 C   0  0  0  0  0  0
   23.1041  111.6136   45.7826 C   0  0  0  0  0  0
   23.2522  115.2469   45.7606 C   0  0  0  0  0  0
   23.3844  112.8906   45.2441 C   0  0  0  0  0  0
   23.1138  115.6849   44.4236 C   0  0  0  0  0  0
   23.2677  113.0362   43.8510 C   0  0  0  0  0  0
   22.7627  110.5170   44.9968 C   0  0  0  0  0  0
   28.9668  115.3413   45.1796 C   0  0  0  0  0  0
   28.2933  115.3088   42.8444 C   0  0  0  0  0  0
   30.3855  114.9229   44.7282 C   0  0  0  0  0  0
   29.7084  114.8717   42.4334 C   0  0  0  0  0  0
   26.2721  114.0622   45.8335 C   0  0  0  0  0  0
   25.0952  113.9793   46.8199 C   0  0  0  0  0  0
   26.5361  115.0262   44.6856 C   0  0  0  0  0  0
   23.8064  113.9752   46.0477 N   0  0  0  0  0  0
   27.9577  114.8264   44.2256 N   0  3  0  0  0  0
   30.6705  115.4104   43.3816 N   0  0  0  0  0  0
   21.4758  109.2820   46.4820 F   0  0  0  0  0  0
   23.5680  108.7578   46.2864 F   0  0  0  0  0  0
   22.1688  108.2284   44.7268 F   0  0  0  0  0  0
   23.4464  114.6039   43.0841 S   0  0  0  0  0  0
   22.4877  109.1685   45.6199 C   0  0  0  0  0  0
   22.0988  118.0954   47.2726 H   0  0  0  0  0  0
   21.9354  118.8347   44.9192 H   0  0  0  0  0  0
   22.9073  115.8907   47.8146 H   0  0  0  0  0  0
   22.5571  117.2941   43.1036 H   0  0  0  0  0  0
   22.8606  112.0714   41.9648 H   0  0  0  0  0  0
   22.4465  109.8723   42.9416 H   0  0  0  0  0  0
   23.1424  111.4363   46.8426 H   0  0  0  0  0  0
   28.7713  114.9390   46.1741 H   0  0  0  0  0  0
   28.8873  116.4276   45.2478 H   0  0  0  0  0  0
   28.1682  116.3891   42.7665 H   0  0  0  0  0  0
   27.6685  114.8861   42.0708 H   0  0  0  0  0  0
   31.1356  115.3267   45.4095 H   0  0  0  0  0  0
   30.4992  113.8367   44.7485 H   0  0  0  0  0  0
   29.7892  113.7825   42.3861 H   0  0  0  0  0  0
   29.9386  115.2343   41.4281 H   0  0  0  0  0  0
   27.1816  114.0702   46.4413 H   0  0  0  0  0  0
   26.1043  113.1492   45.2768 H   0  0  0  0  0  0
   25.2701  113.1149   47.5106 H   0  0  0  0  0  0
   25.0693  114.8523   47.4581 H   0  0  0  0  0  0
   25.8354  114.8419   43.8702 H   0  0  0  0  0  0
   26.3929  116.0519   45.0242 H   0  0  0  0  0  0
   30.7545  116.4210   43.3210 H   0  0  0  0  0  0
   28.1121  113.8275   44.1967 H   0  0  0  0  0  0
  1  2  2  0  0  0
  1  3  1  0  0  0
  1 28  1  0  0  0
  2  4  1  0  0  0
  2 29  1  0  0  0
  3  8  2  0  0  0
  3 30  1  0  0  0
  4 10  2  0  0  0
  4 31  1  0  0  0
  5  6  2  0  0  0
  5 11  1  0  0  0
  5 32  1  0  0  0
  6 12  1  0  0  0
  6 33  1  0  0  0
  7  9  1  0  0  0
  7 12  2  0  0  0
  7 34  1  0  0  0
  8 10  1  0  0  0
  8 20  1  0  0  0
  9 11  2  0  0  0
  9 20  1  0  0  0
 10 26  1  0  0  0
 11 26  1  0  0  0
 12 27  1  0  0  0
 13 15  1  0  0  0
 13 21  1  0  0  0
 13 35  1  0  0  0
 13 36  1  0  0  0
 14 16  1  0  0  0
 14 21  1  0  0  0
 14 37  1  0  0  0
 14 38  1  0  0  0
 15 22  1  0  0  0
 15 39  1  0  0  0
 15 40  1  0  0  0
 16 22  1  0  0  0
 16 41  1  0  0  0
 16 42  1  0  0  0
 17 18  1  0  0  0
 17 19  1  0  0  0
 17 43  1  0  0  0
 17 44  1  0  0  0
 18 20  1  0  0  0
 18 45  1  0  0  0
 18 46  1  0  0  0
 19 21  1  0  0  0
 19 47  1  0  0  0
 19 48  1  0  0  0
 21 50  1  0  0  0
 22 49  1  0  0  0
 23 27  1  0  0  0
 24 27  1  0  0  0
 25 27  1  0  0  0
M  CHG  1  21   1
M  END
> <s_m_entry_id>
411

> <s_m_entry_name>
TFP1bpsS.1

> <s_m_Source_Path>
/home/emilio/Dropbox/SAMPL9-eglab/mCD/ligsdfs

> <s_m_Source_File>
TFP1bpsS.sdf

> <i_m_Source_File_Index>
1

> <i_lp_mmshare_version>
47013

> <s_epik_input>
W2NIXTFbY0hdW2NIXVtjSF1jKGMxMilTYzNjKFtjSF1jKEMoRikoRilGKVtjSF1bY0hdMylOMltDSDJdW0NIMl1bQ0gyXU40W0NIMl1bQ0gyXVtOSF1bQ0gyXVtDSDJdNA==

> <s_epik_cmdline>
J2VwaWtfcHl0aG9uJywgJy1waHQnLCAnNC4wJywgJy1waCcsICc3LjQnLCAnLXRuJywgJzgnLCAnLW1hJywgJzIwMCcsICctaW1hZScsICc8aW5maWxlLm1hZT4nLCAnLW9tYWUnLCAnPG91dGZpbGUubWFlPic=

> <r_epik_Ionization_Penalty>
  0.1004

> <r_epik_Ionization_Penalty_Charging>
  0.0867

> <r_epik_Ionization_Penalty_Neutral>
  0.0137

> <r_epik_State_Penalty>
  1.6660

> <r_epik_Charging_Adjusted_Penalty>
1.75263574697331

> <i_epik_Tot_Q>
1

> <i_epik_Tot_abs_Q>
1

> <s_lp_Force_Field>
OPLS3e

> <r_lp_Energy>
57.544639

> <b_lp_Chiralities_Consistent>
1

> <s_lp_Variant>
TFP-2

> <s_m_job_name>
ligprep_4

> <chiral flag>
1

> <version>
0

> <i_f3d_flags>
0

> <s_m_subgroup_title>
bCDq->psS

> <s_m_subgroupid>
bCDq_copy1->psS_copy1_copy1

> <b_m_subgroup_collapsed>
0

$$$$
